REMARK  0 active torsions:
REMARK  status: ('A' for Active; 'I' for Inactive)
REMARK       I    between atoms: O5'_2  and  C5'_3 
REMARK       I    between atoms: C5'_3  and  C4'_4 
REMARK       I    between atoms: C1'_6  and  N9_7 
REMARK       I    between atoms: C2_10  and  N2_11 
REMARK       I    between atoms: C2'_21  and  O2'_22 
REMARK       I    between atoms: C3'_24  and  O3'_25 
REMARK       I    between atoms: O3'_25  and  P_26 
REMARK       I    between atoms: P_26  and  O5'_29 
REMARK       I    between atoms: O5'_29  and  C5'_30 
REMARK       I    between atoms: C5'_30  and  C4'_31 
REMARK       I    between atoms: C1'_33  and  N9_34 
REMARK       I    between atoms: C2_37  and  N2_38 
REMARK       I    between atoms: C2'_48  and  O2'_49 
REMARK       I    between atoms: C3'_51  and  O3'_52 
REMARK       I    between atoms: O3'_52  and  P_53 
REMARK       I    between atoms: P_53  and  O5'_56 
REMARK       I    between atoms: O5'_56  and  C5'_57 
REMARK       I    between atoms: C5'_57  and  C4'_58 
REMARK       I    between atoms: C1'_60  and  N9_61 
REMARK       I    between atoms: C2_64  and  N2_65 
REMARK       I    between atoms: C2'_75  and  O2'_76 
REMARK       I    between atoms: C3'_78  and  O3'_79 
REMARK       I    between atoms: O3'_79  and  P_80 
REMARK       I    between atoms: P_80  and  O5'_83 
REMARK       I    between atoms: O5'_83  and  C5'_84 
REMARK       I    between atoms: C5'_84  and  C4'_85 
REMARK       I    between atoms: C1'_87  and  N9_88 
REMARK       I    between atoms: C2_91  and  N2_92 
REMARK       I    between atoms: C2'_102  and  O2'_103 
REMARK       I    between atoms: C3'_105  and  O3'_106 
REMARK       I    between atoms: O3'_106  and  P_107 
REMARK       I    between atoms: P_107  and  O5'_110 
REMARK       I    between atoms: O5'_110  and  C5'_111 
REMARK       I    between atoms: C5'_111  and  C4'_112 
REMARK       I    between atoms: C1'_114  and  N9_115 
REMARK       I    between atoms: C2_118  and  N2_119 
REMARK       I    between atoms: C2'_129  and  O2'_130 
REMARK       I    between atoms: C3'_132  and  O3'_133 
REMARK       I    between atoms: O3'_133  and  P_134 
REMARK       I    between atoms: P_134  and  O5'_137 
REMARK       I    between atoms: O5'_137  and  C5'_138 
REMARK       I    between atoms: C5'_138  and  C4'_139 
REMARK       I    between atoms: C1'_141  and  N9_142 
REMARK       I    between atoms: C6_147  and  N6_148 
REMARK       I    between atoms: C2'_154  and  O2'_155 
REMARK       I    between atoms: C3'_157  and  O3'_158 
REMARK       I    between atoms: O3'_158  and  P_159 
REMARK       I    between atoms: P_159  and  O5'_162 
REMARK       I    between atoms: O5'_162  and  C5'_163 
REMARK       I    between atoms: C5'_163  and  C4'_164 
REMARK       I    between atoms: C1'_166  and  N9_167 
REMARK       I    between atoms: C2_170  and  N2_171 
REMARK       I    between atoms: C2'_181  and  O2'_182 
REMARK       I    between atoms: C3'_184  and  O3'_185 
REMARK       I    between atoms: O3'_185  and  P_186 
REMARK       I    between atoms: P_186  and  O5'_189 
REMARK       I    between atoms: O5'_189  and  C5'_190 
REMARK       I    between atoms: C5'_190  and  C4'_191 
REMARK       I    between atoms: C1'_193  and  N1_194 
REMARK       I    between atoms: C2'_203  and  O2'_204 
REMARK       I    between atoms: C3'_206  and  O3'_207 
REMARK       I    between atoms: O3'_207  and  P_208 
REMARK       I    between atoms: P_208  and  O5'_211 
REMARK       I    between atoms: O5'_211  and  C5'_212 
REMARK       I    between atoms: C5'_212  and  C4'_213 
REMARK       I    between atoms: C1'_215  and  N9_216 
REMARK       I    between atoms: C2_219  and  N2_220 
REMARK       I    between atoms: C2'_230  and  O2'_231 
REMARK       I    between atoms: C3'_233  and  O3'_234 
REMARK       I    between atoms: O3'_234  and  P_235 
REMARK       I    between atoms: P_235  and  O5'_238 
REMARK       I    between atoms: O5'_238  and  C5'_239 
REMARK       I    between atoms: C5'_239  and  C4'_240 
REMARK       I    between atoms: C1'_242  and  N9_243 
REMARK       I    between atoms: C2_246  and  N2_247 
REMARK       I    between atoms: C2'_257  and  O2'_258 
REMARK       I    between atoms: C3'_260  and  O3'_261 
REMARK       I    between atoms: O3'_261  and  P_262 
REMARK       I    between atoms: P_262  and  O5'_265 
REMARK       I    between atoms: O5'_265  and  C5'_266 
REMARK       I    between atoms: C5'_266  and  C4'_267 
REMARK       I    between atoms: C1'_269  and  N1_270 
REMARK       I    between atoms: C2'_279  and  O2'_280 
REMARK       I    between atoms: C3'_282  and  O3'_283 
REMARK       I    between atoms: O3'_283  and  P_284 
REMARK       I    between atoms: P_284  and  O5'_287 
REMARK       I    between atoms: O5'_287  and  C5'_288 
REMARK       I    between atoms: C5'_288  and  C4'_289 
REMARK       I    between atoms: C1'_291  and  N9_292 
REMARK       I    between atoms: C2_295  and  N2_296 
REMARK       I    between atoms: C2'_306  and  O2'_307 
REMARK       I    between atoms: C3'_309  and  O3'_310 
REMARK       I    between atoms: O3'_310  and  P_311 
REMARK       I    between atoms: P_311  and  O5'_314 
REMARK       I    between atoms: O5'_314  and  C5'_315 
REMARK       I    between atoms: C5'_315  and  C4'_316 
REMARK       I    between atoms: C1'_318  and  N9_319 
REMARK       I    between atoms: C2_322  and  N2_323 
REMARK       I    between atoms: C2'_333  and  O2'_334 
REMARK       I    between atoms: C3'_336  and  O3'_337 
REMARK       I    between atoms: O3'_337  and  P_338 
REMARK       I    between atoms: P_338  and  O5'_341 
REMARK       I    between atoms: O5'_341  and  C5'_342 
REMARK       I    between atoms: C5'_342  and  C4'_343 
REMARK       I    between atoms: C1'_345  and  N9_346 
REMARK       I    between atoms: C6_351  and  N6_352 
REMARK       I    between atoms: C2'_358  and  O2'_359 
REMARK       I    between atoms: C3'_361  and  O3'_362 
REMARK       I    between atoms: O3'_362  and  P_363 
REMARK       I    between atoms: P_363  and  O5'_366 
REMARK       I    between atoms: O5'_366  and  C5'_367 
REMARK       I    between atoms: C5'_367  and  C4'_368 
REMARK       I    between atoms: C1'_370  and  N9_371 
REMARK       I    between atoms: C6_376  and  N6_377 
REMARK       I    between atoms: C2'_383  and  O2'_384 
REMARK       I    between atoms: C3'_386  and  O3'_387 
REMARK       I    between atoms: O3'_387  and  P_388 
REMARK       I    between atoms: P_388  and  O5'_391 
REMARK       I    between atoms: O5'_391  and  C5'_392 
REMARK       I    between atoms: C5'_392  and  C4'_393 
REMARK       I    between atoms: C1'_395  and  N1_396 
REMARK       I    between atoms: C2'_405  and  O2'_406 
REMARK       I    between atoms: C3'_408  and  O3'_409 
REMARK       I    between atoms: O3'_409  and  P_410 
REMARK       I    between atoms: P_410  and  O5'_413 
REMARK       I    between atoms: O5'_413  and  C5'_414 
REMARK       I    between atoms: C5'_414  and  C4'_415 
REMARK       I    between atoms: C1'_417  and  N9_418 
REMARK       I    between atoms: C2_421  and  N2_422 
REMARK       I    between atoms: C2'_432  and  O2'_433 
REMARK       I    between atoms: C3'_435  and  O3'_436 
REMARK       I    between atoms: O3'_436  and  P_437 
REMARK       I    between atoms: P_437  and  O5'_440 
REMARK       I    between atoms: O5'_440  and  C5'_441 
REMARK       I    between atoms: C5'_441  and  C4'_442 
REMARK       I    between atoms: C1'_444  and  N9_445 
REMARK       I    between atoms: C2_448  and  N2_449 
REMARK       I    between atoms: C2'_459  and  O2'_460 
REMARK       I    between atoms: C3'_462  and  O3'_463 
REMARK       I    between atoms: O3'_463  and  P_464 
REMARK       I    between atoms: P_464  and  O5'_467 
REMARK       I    between atoms: O5'_467  and  C5'_468 
REMARK       I    between atoms: C5'_468  and  C4'_469 
REMARK       I    between atoms: C1'_471  and  N1_472 
REMARK       I    between atoms: C2'_481  and  O2'_482 
REMARK       I    between atoms: C3'_484  and  O3'_485 
REMARK       I    between atoms: O3'_485  and  P_486 
REMARK       I    between atoms: P_486  and  O5'_489 
REMARK       I    between atoms: O5'_489  and  C5'_490 
REMARK       I    between atoms: C5'_490  and  C4'_491 
REMARK       I    between atoms: C1'_493  and  N9_494 
REMARK       I    between atoms: C6_499  and  N6_500 
REMARK       I    between atoms: C2'_506  and  O2'_507 
REMARK       I    between atoms: C3'_509  and  O3'_510 
REMARK       I    between atoms: O3'_510  and  P_511 
REMARK       I    between atoms: P_511  and  O5'_514 
REMARK       I    between atoms: O5'_514  and  C5'_515 
REMARK       I    between atoms: C5'_515  and  C4'_516 
REMARK       I    between atoms: C1'_518  and  N9_519 
REMARK       I    between atoms: C2_522  and  N2_523 
REMARK       I    between atoms: C2'_533  and  O2'_534 
REMARK       I    between atoms: C3'_536  and  O3'_537 
REMARK       I    between atoms: O3'_537  and  P_538 
REMARK       I    between atoms: P_538  and  O5'_541 
REMARK       I    between atoms: O5'_541  and  C5'_542 
REMARK       I    between atoms: C5'_542  and  C4'_543 
REMARK       I    between atoms: C1'_545  and  N9_546 
REMARK       I    between atoms: C6_551  and  N6_552 
REMARK       I    between atoms: C2'_558  and  O2'_559 
REMARK       I    between atoms: C3'_561  and  O3'_562 
REMARK       I    between atoms: O3'_562  and  P_563 
REMARK       I    between atoms: P_563  and  O5'_566 
REMARK       I    between atoms: O5'_566  and  C5'_567 
REMARK       I    between atoms: C5'_567  and  C4'_568 
REMARK       I    between atoms: C1'_570  and  N1_571 
REMARK       I    between atoms: C4_576  and  N4_577 
REMARK       I    between atoms: C2'_581  and  O2'_582 
REMARK       I    between atoms: C3'_584  and  O3'_585 
REMARK       I    between atoms: O3'_585  and  P_586 
REMARK       I    between atoms: P_586  and  O5'_589 
REMARK       I    between atoms: O5'_589  and  C5'_590 
REMARK       I    between atoms: C5'_590  and  C4'_591 
REMARK       I    between atoms: C1'_593  and  N9_594 
REMARK       I    between atoms: C6_599  and  N6_600 
REMARK       I    between atoms: C2'_606  and  O2'_607 
REMARK       I    between atoms: C3'_609  and  O3'_610 
REMARK       I    between atoms: O3'_610  and  P_611 
REMARK       I    between atoms: P_611  and  O5'_614 
REMARK       I    between atoms: O5'_614  and  C5'_615 
REMARK       I    between atoms: C5'_615  and  C4'_616 
REMARK       I    between atoms: C1'_618  and  N1_619 
REMARK       I    between atoms: C4_624  and  N4_625 
REMARK       I    between atoms: C2'_629  and  O2'_630 
REMARK       I    between atoms: C3'_632  and  O3'_633 
REMARK       I    between atoms: O3'_633  and  P_634 
REMARK       I    between atoms: P_634  and  O5'_637 
REMARK       I    between atoms: O5'_637  and  C5'_638 
REMARK       I    between atoms: C5'_638  and  C4'_639 
REMARK       I    between atoms: C1'_641  and  N9_642 
REMARK       I    between atoms: C2_645  and  N2_646 
REMARK       I    between atoms: C2'_656  and  O2'_657 
REMARK       I    between atoms: C3'_659  and  O3'_660 
REMARK       I    between atoms: O3'_660  and  P_661 
REMARK       I    between atoms: P_661  and  O5'_664 
REMARK       I    between atoms: O5'_664  and  C5'_665 
REMARK       I    between atoms: C5'_665  and  C4'_666 
REMARK       I    between atoms: C1'_668  and  N1_669 
REMARK       I    between atoms: C4_674  and  N4_675 
REMARK       I    between atoms: C2'_679  and  O2'_680 
REMARK       I    between atoms: C3'_682  and  O3'_683 
REMARK       I    between atoms: O3'_683  and  P_684 
REMARK       I    between atoms: P_684  and  O5'_687 
REMARK       I    between atoms: O5'_687  and  C5'_688 
REMARK       I    between atoms: C5'_688  and  C4'_689 
REMARK       I    between atoms: C1'_691  and  N1_692 
REMARK       I    between atoms: C4_697  and  N4_698 
REMARK       I    between atoms: C2'_702  and  O2'_703 
REMARK       I    between atoms: C3'_705  and  O3'_706 
REMARK       I    between atoms: O3'_706  and  P_707 
REMARK       I    between atoms: P_707  and  O5'_710 
REMARK       I    between atoms: O5'_710  and  C5'_711 
REMARK       I    between atoms: C5'_711  and  C4'_712 
REMARK       I    between atoms: C1'_714  and  N9_715 
REMARK       I    between atoms: C2_718  and  N2_719 
REMARK       I    between atoms: C2'_729  and  O2'_730 
REMARK       I    between atoms: C3'_732  and  O3'_733 
REMARK       I    between atoms: O3'_733  and  P_734 
REMARK       I    between atoms: P_734  and  O5'_737 
REMARK       I    between atoms: O5'_737  and  C5'_738 
REMARK       I    between atoms: C5'_738  and  C4'_739 
REMARK       I    between atoms: C1'_741  and  N9_742 
REMARK       I    between atoms: C2_745  and  N2_746 
REMARK       I    between atoms: C2'_756  and  O2'_757 
REMARK       I    between atoms: C3'_759  and  O3'_760 
REMARK       I    between atoms: O3'_760  and  P_761 
REMARK       I    between atoms: P_761  and  O5'_764 
REMARK       I    between atoms: O5'_764  and  C5'_765 
REMARK       I    between atoms: C5'_765  and  C4'_766 
REMARK       I    between atoms: C1'_768  and  N9_769 
REMARK       I    between atoms: C6_774  and  N6_775 
REMARK       I    between atoms: C2'_781  and  O2'_782 
REMARK       I    between atoms: C3'_784  and  O3'_785 
REMARK       I    between atoms: O3'_785  and  P_786 
REMARK       I    between atoms: P_786  and  O5'_789 
REMARK       I    between atoms: O5'_789  and  C5'_790 
REMARK       I    between atoms: C5'_790  and  C4'_791 
REMARK       I    between atoms: C1'_793  and  N1_794 
REMARK       I    between atoms: C2'_803  and  O2'_804 
REMARK       I    between atoms: C3'_806  and  O3'_807 
REMARK       I    between atoms: O3'_807  and  P_808 
REMARK       I    between atoms: P_808  and  O5'_811 
REMARK       I    between atoms: O5'_811  and  C5'_812 
REMARK       I    between atoms: C5'_812  and  C4'_813 
REMARK       I    between atoms: C1'_815  and  N1_816 
REMARK       I    between atoms: C2'_825  and  O2'_826 
REMARK       I    between atoms: C3'_828  and  O3'_829 
REMARK       I    between atoms: O3'_829  and  P_830 
REMARK       I    between atoms: P_830  and  O5'_833 
REMARK       I    between atoms: O5'_833  and  C5'_834 
REMARK       I    between atoms: C5'_834  and  C4'_835 
REMARK       I    between atoms: C1'_837  and  N1_838 
REMARK       I    between atoms: C2'_847  and  O2'_848 
REMARK       I    between atoms: C3'_850  and  O3'_851 
REMARK       I    between atoms: O3'_851  and  P_852 
REMARK       I    between atoms: P_852  and  O5'_855 
REMARK       I    between atoms: O5'_855  and  C5'_856 
REMARK       I    between atoms: C5'_856  and  C4'_857 
REMARK       I    between atoms: C1'_859  and  N9_860 
REMARK       I    between atoms: C6_865  and  N6_866 
REMARK       I    between atoms: C2'_872  and  O2'_873 
REMARK       I    between atoms: C3'_875  and  O3'_876 
REMARK       I    between atoms: O3'_876  and  P_877 
REMARK       I    between atoms: P_877  and  O5'_880 
REMARK       I    between atoms: O5'_880  and  C5'_881 
REMARK       I    between atoms: C5'_881  and  C4'_882 
REMARK       I    between atoms: C1'_884  and  N9_885 
REMARK       I    between atoms: C2_888  and  N2_889 
REMARK       I    between atoms: C2'_899  and  O2'_900 
REMARK       I    between atoms: C3'_902  and  O3'_903 
REMARK       I    between atoms: O3'_903  and  P_904 
REMARK       I    between atoms: P_904  and  O5'_907 
REMARK       I    between atoms: O5'_907  and  C5'_908 
REMARK       I    between atoms: C5'_908  and  C4'_909 
REMARK       I    between atoms: C1'_911  and  N9_912 
REMARK       I    between atoms: C2_915  and  N2_916 
REMARK       I    between atoms: C2'_926  and  O2'_927 
REMARK       I    between atoms: C3'_929  and  O3'_930 
REMARK       I    between atoms: O3'_930  and  P_931 
REMARK       I    between atoms: P_931  and  O5'_934 
REMARK       I    between atoms: O5'_934  and  C5'_935 
REMARK       I    between atoms: C5'_935  and  C4'_936 
REMARK       I    between atoms: C1'_938  and  N1_939 
REMARK       I    between atoms: C2'_948  and  O2'_949 
REMARK       I    between atoms: C3'_951  and  O3'_952 
REMARK       I    between atoms: O3'_952  and  P_953 
REMARK       I    between atoms: P_953  and  O5'_956 
REMARK       I    between atoms: O5'_956  and  C5'_957 
REMARK       I    between atoms: C5'_957  and  C4'_958 
REMARK       I    between atoms: C1'_960  and  N1_961 
REMARK       I    between atoms: C2'_970  and  O2'_971 
REMARK       I    between atoms: C3'_973  and  O3'_974 
REMARK       I    between atoms: O3'_974  and  P_975 
REMARK       I    between atoms: P_975  and  O5'_978 
REMARK       I    between atoms: O5'_978  and  C5'_979 
REMARK       I    between atoms: C5'_979  and  C4'_980 
REMARK       I    between atoms: C1'_982  and  N9_983 
REMARK       I    between atoms: C2_986  and  N2_987 
REMARK       I    between atoms: C2'_997  and  O2'_998 
REMARK       I    between atoms: C3'_1000  and  O3'_1001 
REMARK       I    between atoms: O3'_1001  and  P_1002 
REMARK       I    between atoms: P_1002  and  O5'_1005 
REMARK       I    between atoms: O5'_1005  and  C5'_1006 
REMARK       I    between atoms: C5'_1006  and  C4'_1007 
REMARK       I    between atoms: C1'_1009  and  N1_1010 
REMARK       I    between atoms: C4_1015  and  N4_1016 
REMARK       I    between atoms: C2'_1020  and  O2'_1021 
REMARK       I    between atoms: C3'_1023  and  O3'_1024 
REMARK       I    between atoms: O3'_1024  and  P_1025 
REMARK       I    between atoms: P_1025  and  O5'_1028 
REMARK       I    between atoms: O5'_1028  and  C5'_1029 
REMARK       I    between atoms: C5'_1029  and  C4'_1030 
REMARK       I    between atoms: C1'_1032  and  N1_1033 
REMARK       I    between atoms: C4_1038  and  N4_1039 
REMARK       I    between atoms: C2'_1043  and  O2'_1044 
REMARK       I    between atoms: C3'_1046  and  O3'_1047 
REMARK       I    between atoms: O3'_1047  and  P_1048 
REMARK       I    between atoms: P_1048  and  O5'_1051 
REMARK       I    between atoms: O5'_1051  and  C5'_1052 
REMARK       I    between atoms: C5'_1052  and  C4'_1053 
REMARK       I    between atoms: C1'_1055  and  N9_1056 
REMARK       I    between atoms: C2_1059  and  N2_1060 
REMARK       I    between atoms: C2'_1070  and  O2'_1071 
REMARK       I    between atoms: C3'_1073  and  O3'_1074 
REMARK       I    between atoms: O3'_1074  and  P_1075 
REMARK       I    between atoms: P_1075  and  O5'_1078 
REMARK       I    between atoms: O5'_1078  and  C5'_1079 
REMARK       I    between atoms: C5'_1079  and  C4'_1080 
REMARK       I    between atoms: C1'_1082  and  N9_1083 
REMARK       I    between atoms: C6_1088  and  N6_1089 
REMARK       I    between atoms: C2'_1095  and  O2'_1096 
REMARK       I    between atoms: C3'_1098  and  O3'_1099 
REMARK       I    between atoms: O3'_1099  and  P_1100 
REMARK       I    between atoms: P_1100  and  O5'_1103 
REMARK       I    between atoms: O5'_1103  and  C5'_1104 
REMARK       I    between atoms: C5'_1104  and  C4'_1105 
REMARK       I    between atoms: C1'_1107  and  N9_1108 
REMARK       I    between atoms: C6_1113  and  N6_1114 
REMARK       I    between atoms: C2'_1120  and  O2'_1121 
REMARK       I    between atoms: C3'_1123  and  O3'_1124 
REMARK       I    between atoms: O3'_1124  and  P_1125 
REMARK       I    between atoms: P_1125  and  O5'_1128 
REMARK       I    between atoms: O5'_1128  and  C5'_1129 
REMARK       I    between atoms: C5'_1129  and  C4'_1130 
REMARK       I    between atoms: C1'_1132  and  N1_1133 
REMARK       I    between atoms: C4_1138  and  N4_1139 
REMARK       I    between atoms: C2'_1143  and  O2'_1144 
REMARK       I    between atoms: C3'_1146  and  O3'_1147 
REMARK       I    between atoms: O3'_1147  and  P_1148 
REMARK       I    between atoms: P_1148  and  O5'_1151 
REMARK       I    between atoms: O5'_1151  and  C5'_1152 
REMARK       I    between atoms: C5'_1152  and  C4'_1153 
REMARK       I    between atoms: C1'_1155  and  N1_1156 
REMARK       I    between atoms: C4_1161  and  N4_1162 
REMARK       I    between atoms: C2'_1166  and  O2'_1167 
REMARK       I    between atoms: C3'_1169  and  O3'_1170 
REMARK       I    between atoms: O3'_1170  and  P_1171 
REMARK       I    between atoms: P_1171  and  O5'_1174 
REMARK       I    between atoms: O5'_1174  and  C5'_1175 
REMARK       I    between atoms: C5'_1175  and  C4'_1176 
REMARK       I    between atoms: C1'_1178  and  N1_1179 
REMARK       I    between atoms: C2'_1188  and  O2'_1189 
REMARK       I    between atoms: C3'_1191  and  O3'_1192 
REMARK       I    between atoms: O3'_1192  and  P_1193 
REMARK       I    between atoms: P_1193  and  O5'_1196 
REMARK       I    between atoms: O5'_1196  and  C5'_1197 
REMARK       I    between atoms: C5'_1197  and  C4'_1198 
REMARK       I    between atoms: C1'_1200  and  N1_1201 
REMARK       I    between atoms: C4_1206  and  N4_1207 
REMARK       I    between atoms: C2'_1211  and  O2'_1212 
REMARK       I    between atoms: C3'_1214  and  O3'_1215 
REMARK       I    between atoms: O3'_1215  and  P_1216 
REMARK       I    between atoms: P_1216  and  O5'_1219 
REMARK       I    between atoms: O5'_1219  and  C5'_1220 
REMARK       I    between atoms: C5'_1220  and  C4'_1221 
REMARK       I    between atoms: C1'_1223  and  N1_1224 
REMARK       I    between atoms: C2'_1233  and  O2'_1234 
REMARK       I    between atoms: C3'_1236  and  O3'_1237 
REMARK       I    between atoms: O3'_1237  and  P_1238 
REMARK       I    between atoms: P_1238  and  O5'_1241 
REMARK       I    between atoms: O5'_1241  and  C5'_1242 
REMARK       I    between atoms: C5'_1242  and  C4'_1243 
REMARK       I    between atoms: C1'_1245  and  N1_1246 
REMARK       I    between atoms: C2'_1255  and  O2'_1256 
REMARK       I    between atoms: C3'_1258  and  O3'_1259 
REMARK       I    between atoms: O3'_1259  and  P_1260 
REMARK       I    between atoms: P_1260  and  O5'_1263 
REMARK       I    between atoms: O5'_1263  and  C5'_1264 
REMARK       I    between atoms: C5'_1264  and  C4'_1265 
REMARK       I    between atoms: C1'_1267  and  N1_1268 
REMARK       I    between atoms: C4_1273  and  N4_1274 
REMARK       I    between atoms: C2'_1278  and  O2'_1279 
REMARK       I    between atoms: C3'_1281  and  O3'_1282 
REMARK       I    between atoms: O3'_1282  and  P_1283 
REMARK       I    between atoms: P_1283  and  O5'_1286 
REMARK       I    between atoms: O5'_1286  and  C5'_1287 
REMARK       I    between atoms: C5'_1287  and  C4'_1288 
REMARK       I    between atoms: C1'_1290  and  N1_1291 
REMARK       I    between atoms: C4_1296  and  N4_1297 
REMARK       I    between atoms: C2'_1301  and  O2'_1302 
REMARK       I    between atoms: C3'_1304  and  O3'_1305 
REMARK       I    between atoms: O3'_1305  and  P_1306 
REMARK       I    between atoms: P_1306  and  O5'_1309 
REMARK       I    between atoms: O5'_1309  and  C5'_1310 
REMARK       I    between atoms: C5'_1310  and  C4'_1311 
REMARK       I    between atoms: C1'_1313  and  N1_1314 
REMARK       I    between atoms: C4_1319  and  N4_1320 
REMARK       I    between atoms: C2'_1324  and  O2'_1325 
REMARK       I    between atoms: C3'_1327  and  O3'_1328 
REMARK       I    between atoms: O3'_1328  and  P_1329 
REMARK       I    between atoms: P_1329  and  O5'_1332 
REMARK       I    between atoms: O5'_1332  and  C5'_1333 
REMARK       I    between atoms: C5'_1333  and  C4'_1334 
REMARK       I    between atoms: C1'_1336  and  N1_1337 
REMARK       I    between atoms: C4_1342  and  N4_1343 
REMARK       I    between atoms: C2'_1347  and  O2'_1348 
REMARK       I    between atoms: C3'_1350  and  O3'_1351 
REMARK       I    between atoms: O3'_1351  and  P_1352 
REMARK       I    between atoms: P_1352  and  O5'_1355 
REMARK       I    between atoms: O5'_1355  and  C5'_1356 
REMARK       I    between atoms: C5'_1356  and  C4'_1357 
REMARK       I    between atoms: C1'_1359  and  N1_1360 
REMARK       I    between atoms: C4_1365  and  N4_1366 
REMARK       I    between atoms: C2'_1370  and  O2'_1371 
REMARK       I    between atoms: C3'_1373  and  O3'_1374 
ROOT
ATOM      1 'HO5  DG A   1      -0.547   0.368   0.079  1.00  0.00     0.209 HD
ATOM      2  O5'  DG A   1      -0.036   0.496  -0.725  1.00  0.00    -0.398 OA
ATOM      3  C5'  DG A   1       1.341   0.307  -0.387  1.00  0.00     0.198 C 
ATOM      4  C4'  DG A   1       1.502   0.006   1.086  1.00  0.00     0.180 C 
ATOM      5  O4'  DG A   1       1.198   1.210   1.845  1.00  0.00    -0.353 OA
ATOM      6  C1'  DG A   1       0.405   0.879   2.970  1.00  0.00     0.262 C 
ATOM      7  N9   DG A   1      -0.927   1.443   2.773  1.00  0.00    -0.293 N 
ATOM      8  C4   DG A   1      -1.914   1.558   3.721  1.00  0.00     0.187 A 
ATOM      9  N3   DG A   1      -1.826   1.169   5.010  1.00  0.00    -0.044 NA
ATOM     10  C2   DG A   1      -2.940   1.413   5.676  1.00  0.00     0.703 A 
ATOM     11  N2   DG A   1      -3.025   1.090   6.969  1.00  0.00    -0.233 N 
ATOM     12  H21  DG A   1      -2.234   0.661   7.425  1.00  0.00     0.174 HD
ATOM     13  H22  DG A   1      -3.876   1.274   7.482  1.00  0.00     0.174 HD
ATOM     14  N1   DG A   1      -4.053   1.992   5.123  1.00  0.00    -0.153 N 
ATOM     15  H1   DG A   1      -4.851   2.134   5.721  1.00  0.00     0.187 HD
ATOM     16  C6   DG A   1      -4.169   2.400   3.800  1.00  0.00     0.292 A 
ATOM     17  O6   DG A   1      -5.222   2.912   3.405  1.00  0.00    -0.265 OA
ATOM     18  C5   DG A   1      -2.980   2.145   3.071  1.00  0.00     0.173 A 
ATOM     19  N7   DG A   1      -2.668   2.394   1.740  1.00  0.00    -0.234 NA
ATOM     20  C8   DG A   1      -1.444   1.962   1.612  1.00  0.00     0.214 A 
ATOM     21  C2'  DG A   1       0.417  -0.643   3.099  1.00  0.00     0.199 C 
ATOM     22  O2'  DG A   1       1.549  -1.023   3.859  1.00  0.00    -0.388 OA
ATOM     23 'HO2  DG A   1       1.401  -1.925   4.142  1.00  0.00     0.210 HD
ATOM     24  C3'  DG A   1       0.562  -1.057   1.640  1.00  0.00     0.198 C 
ATOM     25  O3'  DG A   1       1.110  -2.363   1.493  1.00  0.00    -0.279 OA
ATOM     26  P    DG A   2       0.131  -3.636   1.395  1.00  0.00     0.408 P 
ATOM     27  OP1  DG A   2       0.988  -4.846   1.320  1.00  0.00    -0.624 OA
ATOM     28  OP2  DG A   2      -0.868  -3.377   0.327  1.00  0.00    -0.624 OA
ATOM     29  O5'  DG A   2      -0.626  -3.648   2.798  1.00  0.00    -0.287 OA
ATOM     30  C5'  DG A   2       0.010  -4.154   3.971  1.00  0.00     0.216 C 
ATOM     31  C4'  DG A   2      -0.873  -3.941   5.180  1.00  0.00     0.180 C 
ATOM     32  O4'  DG A   2      -1.347  -2.571   5.195  1.00  0.00    -0.353 OA
ATOM     33  C1'  DG A   2      -2.625  -2.520   5.805  1.00  0.00     0.262 C 
ATOM     34  N9   DG A   2      -3.542  -1.839   4.896  1.00  0.00    -0.293 N 
ATOM     35  C4   DG A   2      -4.804  -1.385   5.197  1.00  0.00     0.187 A 
ATOM     36  N3   DG A   2      -5.423  -1.494   6.391  1.00  0.00    -0.044 NA
ATOM     37  C2   DG A   2      -6.630  -0.958   6.371  1.00  0.00     0.703 A 
ATOM     38  N2   DG A   2      -7.384  -0.979   7.474  1.00  0.00    -0.233 N 
ATOM     39  H21  DG A   2      -7.022  -1.406   8.314  1.00  0.00     0.174 HD
ATOM     40  H22  DG A   2      -8.310  -0.574   7.465  1.00  0.00     0.174 HD
ATOM     41  N1   DG A   2      -7.188  -0.362   5.271  1.00  0.00    -0.153 N 
ATOM     42  H1   DG A   2      -8.117   0.016   5.365  1.00  0.00     0.187 HD
ATOM     43  C6   DG A   2      -6.572  -0.237   4.031  1.00  0.00     0.292 A 
ATOM     44  O6   DG A   2      -7.167   0.322   3.103  1.00  0.00    -0.265 OA
ATOM     45  C5   DG A   2      -5.272  -0.809   4.035  1.00  0.00     0.173 A 
ATOM     46  N7   DG A   2      -4.326  -0.901   3.022  1.00  0.00    -0.234 NA
ATOM     47  C8   DG A   2      -3.321  -1.520   3.579  1.00  0.00     0.214 A 
ATOM     48  C2'  DG A   2      -3.046  -3.953   6.144  1.00  0.00     0.199 C 
ATOM     49  O2'  DG A   2      -2.730  -4.204   7.500  1.00  0.00    -0.388 OA
ATOM     50 'HO2  DG A   2      -2.304  -5.061   7.528  1.00  0.00     0.210 HD
ATOM     51  C3'  DG A   2      -2.150  -4.767   5.214  1.00  0.00     0.198 C 
ATOM     52  O3'  DG A   2      -1.905  -6.082   5.707  1.00  0.00    -0.279 OA
ATOM     53  P    DG A   3      -2.826  -7.306   5.215  1.00  0.00     0.408 P 
ATOM     54  OP1  DG A   3      -2.262  -8.545   5.810  1.00  0.00    -0.624 OA
ATOM     55  OP2  DG A   3      -2.993  -7.211   3.743  1.00  0.00    -0.624 OA
ATOM     56  O5'  DG A   3      -4.238  -7.029   5.901  1.00  0.00    -0.287 OA
ATOM     57  C5'  DG A   3      -4.358  -6.921   7.319  1.00  0.00     0.216 C 
ATOM     58  C4'  DG A   3      -5.756  -6.488   7.692  1.00  0.00     0.180 C 
ATOM     59  O4'  DG A   3      -6.004  -5.172   7.150  1.00  0.00    -0.353 OA
ATOM     60  C1'  DG A   3      -7.391  -5.010   6.935  1.00  0.00     0.262 C 
ATOM     61  N9   DG A   3      -7.581  -4.398   5.624  1.00  0.00    -0.293 N 
ATOM     62  C4   DG A   3      -8.667  -3.661   5.216  1.00  0.00     0.187 A 
ATOM     63  N3   DG A   3      -9.756  -3.375   5.961  1.00  0.00    -0.044 NA
ATOM     64  C2   DG A   3     -10.631  -2.646   5.293  1.00  0.00     0.703 A 
ATOM     65  N2   DG A   3     -11.768  -2.268   5.883  1.00  0.00    -0.233 N 
ATOM     66  H21  DG A   3     -11.949  -2.544   6.836  1.00  0.00     0.174 HD
ATOM     67  H22  DG A   3     -12.445  -1.715   5.375  1.00  0.00     0.174 HD
ATOM     68  N1   DG A   3     -10.456  -2.230   3.999  1.00  0.00    -0.153 N 
ATOM     69  H1   DG A   3     -11.189  -1.679   3.582  1.00  0.00     0.187 HD
ATOM     70  C6   DG A   3      -9.345  -2.511   3.212  1.00  0.00     0.292 A 
ATOM     71  O6   DG A   3      -9.290  -2.084   2.053  1.00  0.00    -0.265 OA
ATOM     72  C5   DG A   3      -8.393  -3.293   3.916  1.00  0.00     0.173 A 
ATOM     73  N7   DG A   3      -7.160  -3.790   3.512  1.00  0.00    -0.234 NA
ATOM     74  C8   DG A   3      -6.718  -4.437   4.555  1.00  0.00     0.214 A 
ATOM     75  C2'  DG A   3      -8.070  -6.376   7.082  1.00  0.00     0.199 C 
ATOM     76  O2'  DG A   3      -8.775  -6.393   8.309  1.00  0.00    -0.388 OA
ATOM     77 'HO2  DG A   3      -9.327  -7.176   8.295  1.00  0.00     0.210 HD
ATOM     78  C3'  DG A   3      -6.880  -7.338   7.118  1.00  0.00     0.198 C 
ATOM     79  O3'  DG A   3      -7.125  -8.475   7.943  1.00  0.00    -0.279 OA
ATOM     80  P    DG A   4      -7.711  -9.826   7.296  1.00  0.00     0.408 P 
ATOM     81  OP1  DG A   4      -7.686 -10.865   8.356  1.00  0.00    -0.624 OA
ATOM     82  OP2  DG A   4      -7.015 -10.077   6.008  1.00  0.00    -0.624 OA
ATOM     83  O5'  DG A   4      -9.236  -9.477   6.991  1.00  0.00    -0.287 OA
ATOM     84  C5'  DG A   4      -9.675  -9.186   5.665  1.00  0.00     0.216 C 
ATOM     85  C4'  DG A   4     -11.056  -8.577   5.699  1.00  0.00     0.180 C 
ATOM     86  O4'  DG A   4     -10.937  -7.142   5.502  1.00  0.00    -0.353 OA
ATOM     87  C1'  DG A   4     -11.980  -6.685   4.659  1.00  0.00     0.262 C 
ATOM     88  N9   DG A   4     -11.385  -6.170   3.430  1.00  0.00    -0.293 N 
ATOM     89  C4   DG A   4     -11.992  -5.350   2.510  1.00  0.00     0.187 A 
ATOM     90  N3   DG A   4     -13.252  -4.874   2.583  1.00  0.00    -0.044 NA
ATOM     91  C2   DG A   4     -13.550  -4.109   1.548  1.00  0.00     0.703 A 
ATOM     92  N2   DG A   4     -14.760  -3.551   1.462  1.00  0.00    -0.233 N 
ATOM     93  H21  DG A   4     -15.437  -3.720   2.192  1.00  0.00     0.174 HD
ATOM     94  H22  DG A   4     -14.997  -2.969   0.671  1.00  0.00     0.174 HD
ATOM     95  N1   DG A   4     -12.684  -3.834   0.522  1.00  0.00    -0.153 N 
ATOM     96  H1   DG A   4     -13.015  -3.239  -0.221  1.00  0.00     0.187 HD
ATOM     97  C6   DG A   4     -11.383  -4.311   0.425  1.00  0.00     0.292 A 
ATOM     98  O6   DG A   4     -10.685  -3.998  -0.547  1.00  0.00    -0.265 OA
ATOM     99  C5   DG A   4     -11.046  -5.134   1.530  1.00  0.00     0.173 A 
ATOM    100  N7   DG A   4      -9.867  -5.806   1.828  1.00  0.00    -0.234 NA
ATOM    101  C8   DG A   4     -10.115  -6.404   2.960  1.00  0.00     0.214 A 
ATOM    102  C2'  DG A   4     -12.938  -7.854   4.435  1.00  0.00     0.199 C 
ATOM    103  O2'  DG A   4     -13.922  -7.836   5.453  1.00  0.00    -0.388 OA
ATOM    104 'HO2  DG A   4     -14.001  -8.735   5.772  1.00  0.00     0.210 HD
ATOM    105  C3'  DG A   4     -12.001  -9.044   4.600  1.00  0.00     0.198 C 
ATOM    106  O3'  DG A   4     -12.693 -10.231   4.979  1.00  0.00    -0.279 OA
ATOM    107  P    DG A   5     -13.245 -11.231   3.847  1.00  0.00     0.408 P 
ATOM    108  OP1  DG A   5     -13.941 -12.343   4.542  1.00  0.00    -0.624 OA
ATOM    109  OP2  DG A   5     -12.136 -11.535   2.906  1.00  0.00    -0.624 OA
ATOM    110  O5'  DG A   5     -14.340 -10.371   3.072  1.00  0.00    -0.287 OA
ATOM    111  C5'  DG A   5     -15.540  -9.952   3.721  1.00  0.00     0.216 C 
ATOM    112  C4'  DG A   5     -16.509  -9.388   2.707  1.00  0.00     0.180 C 
ATOM    113  O4'  DG A   5     -16.045  -8.075   2.298  1.00  0.00    -0.353 OA
ATOM    114  C1'  DG A   5     -16.291  -7.888   0.916  1.00  0.00     0.262 C 
ATOM    115  N9   DG A   5     -15.012  -7.659   0.251  1.00  0.00    -0.293 N 
ATOM    116  C4   DG A   5     -14.784  -6.831  -0.823  1.00  0.00     0.187 A 
ATOM    117  N3   DG A   5     -15.709  -6.076  -1.454  1.00  0.00    -0.044 NA
ATOM    118  C2   DG A   5     -15.185  -5.387  -2.452  1.00  0.00     0.703 A 
ATOM    119  N2   DG A   5     -15.963  -4.581  -3.181  1.00  0.00    -0.233 N 
ATOM    120  H21  DG A   5     -16.945  -4.507  -2.958  1.00  0.00     0.174 HD
ATOM    121  H22  DG A   5     -15.578  -4.053  -3.952  1.00  0.00     0.174 HD
ATOM    122  N1   DG A   5     -13.863  -5.435  -2.808  1.00  0.00    -0.153 N 
ATOM    123  H1   DG A   5     -13.567  -4.872  -3.591  1.00  0.00     0.187 HD
ATOM    124  C6   DG A   5     -12.893  -6.202  -2.173  1.00  0.00     0.292 A 
ATOM    125  O6   DG A   5     -11.725  -6.169  -2.575  1.00  0.00    -0.265 OA
ATOM    126  C5   DG A   5     -13.438  -6.948  -1.096  1.00  0.00     0.173 A 
ATOM    127  N7   DG A   5     -12.830  -7.830  -0.212  1.00  0.00    -0.234 NA
ATOM    128  C8   DG A   5     -13.801  -8.224   0.565  1.00  0.00     0.214 A 
ATOM    129  C2'  DG A   5     -17.039  -9.117   0.397  1.00  0.00     0.199 C 
ATOM    130  O2'  DG A   5     -18.430  -8.858   0.455  1.00  0.00    -0.388 OA
ATOM    131 'HO2  DG A   5     -18.831  -9.334  -0.274  1.00  0.00     0.210 HD
ATOM    132  C3'  DG A   5     -16.629 -10.180   1.413  1.00  0.00     0.198 C 
ATOM    133  O3'  DG A   5     -17.595 -11.219   1.536  1.00  0.00    -0.279 OA
ATOM    134  P    DA A   6     -17.731 -12.326   0.377  1.00  0.00     0.408 P 
ATOM    135  OP1  DA A   6     -18.556 -13.434   0.920  1.00  0.00    -0.624 OA
ATOM    136  OP2  DA A   6     -16.377 -12.615  -0.162  1.00  0.00    -0.624 OA
ATOM    137  O5'  DA A   6     -18.579 -11.594  -0.756  1.00  0.00    -0.287 OA
ATOM    138  C5'  DA A   6     -18.650 -12.125  -2.079  1.00  0.00     0.216 C 
ATOM    139  C4'  DA A   6     -18.879 -11.012  -3.075  1.00  0.00     0.180 C 
ATOM    140  O4'  DA A   6     -18.099  -9.852  -2.682  1.00  0.00    -0.353 OA
ATOM    141  C1'  DA A   6     -17.585  -9.205  -3.832  1.00  0.00     0.262 C 
ATOM    142  N9   DA A   6     -16.125  -9.208  -3.746  1.00  0.00    -0.294 N 
ATOM    143  C4   DA A   6     -15.255  -8.523  -4.560  1.00  0.00     0.167 A 
ATOM    144  N3   DA A   6     -15.564  -7.719  -5.592  1.00  0.00    -0.222 NA
ATOM    145  C2   DA A   6     -14.460  -7.232  -6.155  1.00  0.00     0.237 A 
ATOM    146  N1   DA A   6     -13.179  -7.439  -5.825  1.00  0.00    -0.222 NA
ATOM    147  C6   DA A   6     -12.904  -8.246  -4.778  1.00  0.00     0.155 A 
ATOM    148  N6   DA A   6     -11.629  -8.444  -4.443  1.00  0.00    -0.382 N 
ATOM    149  H61  DA A   6     -11.405  -9.042  -3.661  1.00  0.00     0.157 HD
ATOM    150  H62  DA A   6     -10.888  -8.000  -4.967  1.00  0.00     0.157 HD
ATOM    151  C5   DA A   6     -13.988  -8.830  -4.100  1.00  0.00     0.149 A 
ATOM    152  N7   DA A   6     -14.055  -9.692  -3.015  1.00  0.00    -0.236 NA
ATOM    153  C8   DA A   6     -15.340  -9.886  -2.846  1.00  0.00     0.214 A 
ATOM    154  C2'  DA A   6     -18.134  -9.931  -5.062  1.00  0.00     0.199 C 
ATOM    155  O2'  DA A   6     -19.326  -9.290  -5.476  1.00  0.00    -0.388 OA
ATOM    156 'HO2  DA A   6     -19.883  -9.974  -5.850  1.00  0.00     0.210 HD
ATOM    157  C3'  DA A   6     -18.425 -11.316  -4.496  1.00  0.00     0.198 C 
ATOM    158  O3'  DA A   6     -19.441 -11.999  -5.229  1.00  0.00    -0.279 OA
ATOM    159  P    DG A   7     -19.252 -13.552  -5.611  1.00  0.00     0.408 P 
ATOM    160  OP1  DG A   7     -20.574 -14.208  -5.434  1.00  0.00    -0.624 OA
ATOM    161  OP2  DG A   7     -18.068 -14.090  -4.894  1.00  0.00    -0.624 OA
ATOM    162  O5'  DG A   7     -18.921 -13.525  -7.169  1.00  0.00    -0.287 OA
ATOM    163  C5'  DG A   7     -19.608 -12.638  -8.050  1.00  0.00     0.216 C 
ATOM    164  C4'  DG A   7     -18.625 -11.956  -8.973  1.00  0.00     0.180 C 
ATOM    165  O4'  DG A   7     -17.830 -11.016  -8.205  1.00  0.00    -0.353 OA
ATOM    166  C1'  DG A   7     -16.524 -10.945  -8.749  1.00  0.00     0.262 C 
ATOM    167  N9   DG A   7     -15.566 -11.248  -7.691  1.00  0.00    -0.293 N 
ATOM    168  C4   DG A   7     -14.274 -10.791  -7.609  1.00  0.00     0.187 A 
ATOM    169  N3   DG A   7     -13.664  -9.980  -8.497  1.00  0.00    -0.044 NA
ATOM    170  C2   DG A   7     -12.419  -9.716  -8.149  1.00  0.00     0.703 A 
ATOM    171  N2   DG A   7     -11.669  -8.929  -8.924  1.00  0.00    -0.233 N 
ATOM    172  H21  DG A   7     -12.068  -8.545  -9.768  1.00  0.00     0.174 HD
ATOM    173  H22  DG A   7     -10.712  -8.728  -8.679  1.00  0.00     0.174 HD
ATOM    174  N1   DG A   7     -11.818 -10.205  -7.018  1.00  0.00    -0.153 N 
ATOM    175  H1   DG A   7     -10.862  -9.940  -6.839  1.00  0.00     0.187 HD
ATOM    176  C6   DG A   7     -12.424 -11.043  -6.090  1.00  0.00     0.292 A 
ATOM    177  O6   DG A   7     -11.787 -11.429  -5.104  1.00  0.00    -0.265 OA
ATOM    178  C5   DG A   7     -13.764 -11.338  -6.451  1.00  0.00     0.173 A 
ATOM    179  N7   DG A   7     -14.717 -12.123  -5.815  1.00  0.00    -0.234 NA
ATOM    180  C8   DG A   7     -15.766 -12.039  -6.587  1.00  0.00     0.214 A 
ATOM    181  C2'  DG A   7     -16.452 -11.908  -9.936  1.00  0.00     0.199 C 
ATOM    182  O2'  DG A   7     -16.707 -11.174 -11.118  1.00  0.00    -0.388 OA
ATOM    183 'HO2  DG A   7     -16.204 -11.579 -11.826  1.00  0.00     0.210 HD
ATOM    184  C3'  DG A   7     -17.596 -12.868  -9.624  1.00  0.00     0.198 C 
ATOM    185  O3'  DG A   7     -18.118 -13.490 -10.796  1.00  0.00    -0.279 OA
ATOM    186  P    DT A   8     -18.432 -15.068 -10.796  1.00  0.00     0.408 P 
ATOM    187  OP1  DT A   8     -18.651 -15.503  -9.393  1.00  0.00    -0.624 OA
ATOM    188  OP2  DT A   8     -17.393 -15.739 -11.616  1.00  0.00    -0.624 OA
ATOM    189  O5'  DT A   8     -19.820 -15.181 -11.572  1.00  0.00    -0.287 OA
ATOM    190  C5'  DT A   8     -21.061 -15.193 -10.866  1.00  0.00     0.216 C 
ATOM    191  C4'  DT A   8     -22.130 -14.490 -11.672  1.00  0.00     0.180 C 
ATOM    192  O4'  DT A   8     -21.596 -13.227 -12.157  1.00  0.00    -0.353 OA
ATOM    193  C1'  DT A   8     -22.006 -13.016 -13.496  1.00  0.00     0.264 C 
ATOM    194  N1   DT A   8     -20.815 -13.050 -14.357  1.00  0.00    -0.280 N 
ATOM    195  C6   DT A   8     -19.588 -13.433 -13.865  1.00  0.00     0.104 A 
ATOM    196  C2   DT A   8     -20.969 -12.684 -15.680  1.00  0.00     0.331 A 
ATOM    197  O2   DT A   8     -22.038 -12.342 -16.151  1.00  0.00    -0.246 OA
ATOM    198  N3   DT A   8     -19.824 -12.734 -16.433  1.00  0.00    -0.275 N 
ATOM    199  H3   DT A   8     -19.908 -12.492 -17.409  1.00  0.00     0.173 HD
ATOM    200  C4   DT A   8     -18.568 -13.104 -16.006  1.00  0.00     0.250 A 
ATOM    201  O4   DT A   8     -17.630 -13.086 -16.802  1.00  0.00    -0.268 OA
ATOM    202  C5   DT A   8     -18.492 -13.471 -14.627  1.00  0.00     0.092 A 
ATOM    203  C2'  DT A   8     -23.041 -14.088 -13.833  1.00  0.00     0.199 C 
ATOM    204  O2'  DT A   8     -24.324 -13.612 -13.471  1.00  0.00    -0.388 OA
ATOM    205 'HO2  DT A   8     -24.820 -14.378 -13.180  1.00  0.00     0.210 HD
ATOM    206  C3'  DT A   8     -22.598 -15.225 -12.922  1.00  0.00     0.198 C 
ATOM    207  O3'  DT A   8     -23.667 -16.124 -12.635  1.00  0.00    -0.279 OA
ATOM    208  P    DG A   9     -23.352 -17.664 -12.292  1.00  0.00     0.408 P 
ATOM    209  OP1  DG A   9     -24.149 -18.009 -11.088  1.00  0.00    -0.624 OA
ATOM    210  OP2  DG A   9     -21.881 -17.873 -12.281  1.00  0.00    -0.624 OA
ATOM    211  O5'  DG A   9     -23.958 -18.467 -13.528  1.00  0.00    -0.287 OA
ATOM    212  C5'  DG A   9     -23.575 -18.158 -14.869  1.00  0.00     0.216 C 
ATOM    213  C4'  DG A   9     -24.725 -17.506 -15.600  1.00  0.00     0.180 C 
ATOM    214  O4'  DG A   9     -24.473 -16.075 -15.674  1.00  0.00    -0.353 OA
ATOM    215  C1'  DG A   9     -24.751 -15.606 -16.980  1.00  0.00     0.262 C 
ATOM    216  N9   DG A   9     -23.488 -15.261 -17.626  1.00  0.00    -0.293 N 
ATOM    217  C4   DG A   9     -23.333 -14.724 -18.880  1.00  0.00     0.187 A 
ATOM    218  N3   DG A   9     -24.327 -14.419 -19.740  1.00  0.00    -0.044 NA
ATOM    219  C2   DG A   9     -23.863 -13.919 -20.872  1.00  0.00     0.703 A 
ATOM    220  N2   DG A   9     -24.714 -13.565 -21.838  1.00  0.00    -0.233 N 
ATOM    221  H21  DG A   9     -25.705 -13.684 -21.693  1.00  0.00     0.174 HD
ATOM    222  H22  DG A   9     -24.368 -13.187 -22.709  1.00  0.00     0.174 HD
ATOM    223  N1   DG A   9     -22.532 -13.731 -21.139  1.00  0.00    -0.153 N 
ATOM    224  H1   DG A   9     -22.286 -13.339 -22.035  1.00  0.00     0.187 HD
ATOM    225  C6   DG A   9     -21.491 -14.037 -20.271  1.00  0.00     0.292 A 
ATOM    226  O6   DG A   9     -20.322 -13.827 -20.615  1.00  0.00    -0.265 OA
ATOM    227  C5   DG A   9     -21.972 -14.577 -19.050  1.00  0.00     0.173 A 
ATOM    228  N7   DG A   9     -21.285 -15.011 -17.924  1.00  0.00    -0.234 NA
ATOM    229  C8   DG A   9     -22.223 -15.408 -17.110  1.00  0.00     0.214 A 
ATOM    230  C2'  DG A   9     -25.523 -16.713 -17.695  1.00  0.00     0.199 C 
ATOM    231  O2'  DG A   9     -26.897 -16.590 -17.378  1.00  0.00    -0.388 OA
ATOM    232 'HO2  DG A   9     -27.206 -17.470 -17.161  1.00  0.00     0.210 HD
ATOM    233  C3'  DG A   9     -24.919 -17.951 -17.046  1.00  0.00     0.198 C 
ATOM    234  O3'  DG A   9     -25.780 -19.083 -17.139  1.00  0.00    -0.279 OA
ATOM    235  P    DG A  10     -25.627 -20.105 -18.372  1.00  0.00     0.408 P 
ATOM    236  OP1  DG A  10     -26.765 -21.056 -18.298  1.00  0.00    -0.624 OA
ATOM    237  OP2  DG A  10     -24.236 -20.626 -18.379  1.00  0.00    -0.624 OA
ATOM    238  O5'  DG A  10     -25.824 -19.192 -19.665  1.00  0.00    -0.287 OA
ATOM    239  C5'  DG A  10     -27.121 -18.748 -20.060  1.00  0.00     0.216 C 
ATOM    240  C4'  DG A  10     -27.093 -18.250 -21.488  1.00  0.00     0.180 C 
ATOM    241  O4'  DG A  10     -26.349 -17.002 -21.540  1.00  0.00    -0.353 OA
ATOM    242  C1'  DG A  10     -25.603 -16.941 -22.744  1.00  0.00     0.262 C 
ATOM    243  N9   DG A  10     -24.185 -16.871 -22.404  1.00  0.00    -0.293 N 
ATOM    244  C4   DG A  10     -23.159 -16.515 -23.246  1.00  0.00     0.187 A 
ATOM    245  N3   DG A  10     -23.283 -16.170 -24.545  1.00  0.00    -0.044 NA
ATOM    246  C2   DG A  10     -22.117 -15.877 -25.090  1.00  0.00     0.703 A 
ATOM    247  N2   DG A  10     -22.058 -15.516 -26.374  1.00  0.00    -0.233 N 
ATOM    248  H21  DG A  10     -22.908 -15.471 -26.916  1.00  0.00     0.174 HD
ATOM    249  H22  DG A  10     -21.169 -15.291 -26.799  1.00  0.00     0.174 HD
ATOM    250  N1   DG A  10     -20.923 -15.917 -24.418  1.00  0.00    -0.153 N 
ATOM    251  H1   DG A  10     -20.089 -15.674 -24.930  1.00  0.00     0.187 HD
ATOM    252  C6   DG A  10     -20.769 -16.269 -23.083  1.00  0.00     0.292 A 
ATOM    253  O6   DG A  10     -19.641 -16.273 -22.575  1.00  0.00    -0.265 OA
ATOM    254  C5   DG A  10     -22.014 -16.588 -22.481  1.00  0.00     0.173 A 
ATOM    255  N7   DG A  10     -22.313 -16.985 -21.184  1.00  0.00    -0.234 NA
ATOM    256  C8   DG A  10     -23.609 -17.142 -21.187  1.00  0.00     0.214 A 
ATOM    257  C2'  DG A  10     -25.972 -18.168 -23.578  1.00  0.00     0.199 C 
ATOM    258  O2'  DG A  10     -27.070 -17.839 -24.409  1.00  0.00    -0.388 OA
ATOM    259 'HO2  DG A  10     -27.674 -18.581 -24.375  1.00  0.00     0.210 HD
ATOM    260  C3'  DG A  10     -26.384 -19.151 -22.489  1.00  0.00     0.198 C 
ATOM    261  O3'  DG A  10     -27.246 -20.174 -22.982  1.00  0.00    -0.279 OA
ATOM    262  P    DT A  11     -26.618 -21.528 -23.583  1.00  0.00     0.408 P 
ATOM    263  OP1  DT A  11     -27.710 -22.246 -24.289  1.00  0.00    -0.624 OA
ATOM    264  OP2  DT A  11     -25.869 -22.215 -22.501  1.00  0.00    -0.624 OA
ATOM    265  O5'  DT A  11     -25.568 -21.021 -24.670  1.00  0.00    -0.287 OA
ATOM    266  C5'  DT A  11     -26.001 -20.522 -25.935  1.00  0.00     0.216 C 
ATOM    267  C4'  DT A  11     -24.809 -20.130 -26.778  1.00  0.00     0.180 C 
ATOM    268  O4'  DT A  11     -24.093 -19.054 -26.116  1.00  0.00    -0.353 OA
ATOM    269  C1'  DT A  11     -22.700 -19.206 -26.329  1.00  0.00     0.264 C 
ATOM    270  N1   DT A  11     -22.043 -19.353 -25.022  1.00  0.00    -0.280 N 
ATOM    271  C6   DT A  11     -22.734 -19.813 -23.923  1.00  0.00     0.104 A 
ATOM    272  C2   DT A  11     -20.706 -19.012 -24.933  1.00  0.00     0.331 A 
ATOM    273  O2   DT A  11     -20.063 -18.601 -25.883  1.00  0.00    -0.246 OA
ATOM    274  N3   DT A  11     -20.149 -19.170 -23.689  1.00  0.00    -0.275 N 
ATOM    275  H3   DT A  11     -19.175 -18.928 -23.592  1.00  0.00     0.173 HD
ATOM    276  C4   DT A  11     -20.780 -19.622 -22.551  1.00  0.00     0.250 A 
ATOM    277  O4   DT A  11     -20.143 -19.709 -21.502  1.00  0.00    -0.268 OA
ATOM    278  C5   DT A  11     -22.160 -19.952 -22.725  1.00  0.00     0.092 A 
ATOM    279  C2'  DT A  11     -22.498 -20.407 -27.253  1.00  0.00     0.199 C 
ATOM    280  O2'  DT A  11     -22.467 -19.942 -28.589  1.00  0.00    -0.388 OA
ATOM    281 'HO2  DT A  11     -22.671 -20.690 -29.150  1.00  0.00     0.210 HD
ATOM    282  C3'  DT A  11     -23.760 -21.215 -26.974  1.00  0.00     0.198 C 
ATOM    283  O3'  DT A  11     -24.099 -22.085 -28.051  1.00  0.00    -0.279 OA
ATOM    284  P    DG A  12     -23.386 -23.521 -28.175  1.00  0.00     0.408 P 
ATOM    285  OP1  DG A  12     -24.286 -24.393 -28.973  1.00  0.00    -0.624 OA
ATOM    286  OP2  DG A  12     -22.954 -23.957 -26.822  1.00  0.00    -0.624 OA
ATOM    287  O5'  DG A  12     -22.082 -23.230 -29.043  1.00  0.00    -0.287 OA
ATOM    288  C5'  DG A  12     -22.183 -22.799 -30.399  1.00  0.00     0.216 C 
ATOM    289  C4'  DG A  12     -20.838 -22.321 -30.896  1.00  0.00     0.180 C 
ATOM    290  O4'  DG A  12     -20.340 -21.291 -30.002  1.00  0.00    -0.353 OA
ATOM    291  C1'  DG A  12     -18.930 -21.391 -29.899  1.00  0.00     0.262 C 
ATOM    292  N9   DG A  12     -18.584 -21.614 -28.499  1.00  0.00    -0.293 N 
ATOM    293  C4   DG A  12     -17.403 -21.272 -27.887  1.00  0.00     0.187 A 
ATOM    294  N3   DG A  12     -16.351 -20.668 -28.478  1.00  0.00    -0.044 NA
ATOM    295  C2   DG A  12     -15.358 -20.470 -27.631  1.00  0.00     0.703 A 
ATOM    296  N2   DG A  12     -14.239 -19.878 -28.052  1.00  0.00    -0.233 N 
ATOM    297  H21  DG A  12     -14.162 -19.586 -29.015  1.00  0.00     0.174 HD
ATOM    298  H22  DG A  12     -13.473 -19.725 -27.411  1.00  0.00     0.174 HD
ATOM    299  N1   DG A  12     -15.389 -20.836 -26.311  1.00  0.00    -0.153 N 
ATOM    300  H1   DG A  12     -14.574 -20.639 -25.750  1.00  0.00     0.187 HD
ATOM    301  C6   DG A  12     -16.458 -21.459 -25.679  1.00  0.00     0.292 A 
ATOM    302  O6   DG A  12     -16.379 -21.747 -24.477  1.00  0.00    -0.265 OA
ATOM    303  C5   DG A  12     -17.537 -21.679 -26.576  1.00  0.00     0.173 A 
ATOM    304  N7   DG A  12     -18.780 -22.264 -26.367  1.00  0.00    -0.234 NA
ATOM    305  C8   DG A  12     -19.362 -22.204 -27.533  1.00  0.00     0.214 A 
ATOM    306  C2'  DG A  12     -18.473 -22.516 -30.830  1.00  0.00     0.199 C 
ATOM    307  O2'  DG A  12     -18.153 -21.956 -32.090  1.00  0.00    -0.388 OA
ATOM    308 'HO2  DG A  12     -18.621 -22.473 -32.746  1.00  0.00     0.210 HD
ATOM    309  C3'  DG A  12     -19.734 -23.368 -30.910  1.00  0.00     0.198 C 
ATOM    310  O3'  DG A  12     -19.782 -24.164 -32.091  1.00  0.00    -0.279 OA
ATOM    311  P    DG A  13     -19.130 -25.635 -32.092  1.00  0.00     0.408 P 
ATOM    312  OP1  DG A  13     -19.413 -26.238 -33.419  1.00  0.00    -0.624 OA
ATOM    313  OP2  DG A  13     -19.557 -26.344 -30.858  1.00  0.00    -0.624 OA
ATOM    314  O5'  DG A  13     -17.563 -25.363 -31.998  1.00  0.00    -0.287 OA
ATOM    315  C5'  DG A  13     -16.883 -24.629 -33.015  1.00  0.00     0.216 C 
ATOM    316  C4'  DG A  13     -15.428 -24.451 -32.646  1.00  0.00     0.180 C 
ATOM    317  O4'  DG A  13     -15.338 -23.825 -31.340  1.00  0.00    -0.353 OA
ATOM    318  C1'  DG A  13     -14.180 -24.291 -30.670  1.00  0.00     0.262 C 
ATOM    319  N9   DG A  13     -14.585 -24.842 -29.380  1.00  0.00    -0.293 N 
ATOM    320  C4   DG A  13     -13.807 -24.930 -28.250  1.00  0.00     0.187 A 
ATOM    321  N3   DG A  13     -12.527 -24.520 -28.136  1.00  0.00    -0.044 NA
ATOM    322  C2   DG A  13     -12.046 -24.737 -26.926  1.00  0.00     0.703 A 
ATOM    323  N2   DG A  13     -10.788 -24.388 -26.641  1.00  0.00    -0.233 N 
ATOM    324  H21  DG A  13     -10.222 -23.961 -27.360  1.00  0.00     0.174 HD
ATOM    325  H22  DG A  13     -10.407 -24.548 -25.722  1.00  0.00     0.174 HD
ATOM    326  N1   DG A  13     -12.760 -25.311 -25.907  1.00  0.00    -0.153 N 
ATOM    327  H1   DG A  13     -12.298 -25.433 -25.019  1.00  0.00     0.187 HD
ATOM    328  C6   DG A  13     -14.079 -25.741 -25.999  1.00  0.00     0.292 A 
ATOM    329  O6   DG A  13     -14.630 -26.244 -25.013  1.00  0.00    -0.265 OA
ATOM    330  C5   DG A  13     -14.612 -25.514 -27.296  1.00  0.00     0.173 A 
ATOM    331  N7   DG A  13     -15.871 -25.789 -27.814  1.00  0.00    -0.234 NA
ATOM    332  C8   DG A  13     -15.807 -25.374 -29.049  1.00  0.00     0.214 A 
ATOM    333  C2'  DG A  13     -13.485 -25.307 -31.579  1.00  0.00     0.199 C 
ATOM    334  O2'  DG A  13     -12.473 -24.641 -32.313  1.00  0.00    -0.388 OA
ATOM    335 'HO2  DG A  13     -12.561 -24.930 -33.221  1.00  0.00     0.210 HD
ATOM    336  C3'  DG A  13     -14.630 -25.736 -32.491  1.00  0.00     0.198 C 
ATOM    337  O3'  DG A  13     -14.173 -26.220 -33.751  1.00  0.00    -0.279 OA
ATOM    338  P    DA A  14     -14.168 -27.801 -34.046  1.00  0.00     0.408 P 
ATOM    339  OP1  DA A  14     -13.598 -27.994 -35.404  1.00  0.00    -0.624 OA
ATOM    340  OP2  DA A  14     -15.514 -28.342 -33.731  1.00  0.00    -0.624 OA
ATOM    341  O5'  DA A  14     -13.132 -28.386 -32.985  1.00  0.00    -0.287 OA
ATOM    342  C5'  DA A  14     -11.764 -27.980 -32.991  1.00  0.00     0.216 C 
ATOM    343  C4'  DA A  14     -11.026 -28.622 -31.840  1.00  0.00     0.180 C 
ATOM    344  O4'  DA A  14     -11.382 -27.933 -30.612  1.00  0.00    -0.353 OA
ATOM    345  C1'  DA A  14     -11.512 -28.870 -29.558  1.00  0.00     0.262 C 
ATOM    346  N9   DA A  14     -12.894 -28.836 -29.081  1.00  0.00    -0.294 N 
ATOM    347  C4   DA A  14     -13.315 -29.042 -27.789  1.00  0.00     0.167 A 
ATOM    348  N3   DA A  14     -12.552 -29.313 -26.716  1.00  0.00    -0.222 NA
ATOM    349  C2   DA A  14     -13.306 -29.452 -25.628  1.00  0.00     0.237 A 
ATOM    350  N1   DA A  14     -14.634 -29.356 -25.501  1.00  0.00    -0.222 NA
ATOM    351  C6   DA A  14     -15.371 -29.082 -26.598  1.00  0.00     0.155 A 
ATOM    352  N6   DA A  14     -16.694 -28.984 -26.468  1.00  0.00    -0.382 N 
ATOM    353  H61  DA A  14     -17.265 -28.778 -27.275  1.00  0.00     0.157 HD
ATOM    354  H62  DA A  14     -17.117 -29.118 -25.563  1.00  0.00     0.157 HD
ATOM    355  C5   DA A  14     -14.691 -28.914 -27.817  1.00  0.00     0.149 A 
ATOM    356  N7   DA A  14     -15.133 -28.633 -29.102  1.00  0.00    -0.236 NA
ATOM    357  C8   DA A  14     -14.032 -28.596 -29.812  1.00  0.00     0.214 A 
ATOM    358  C2'  DA A  14     -11.081 -30.236 -30.093  1.00  0.00     0.199 C 
ATOM    359  O2'  DA A  14      -9.695 -30.398 -29.857  1.00  0.00    -0.388 OA
ATOM    360 'HO2  DA A  14      -9.332 -30.824 -30.634  1.00  0.00     0.210 HD
ATOM    361  C3'  DA A  14     -11.374 -30.081 -31.581  1.00  0.00     0.198 C 
ATOM    362  O3'  DA A  14     -10.581 -30.954 -32.384  1.00  0.00    -0.279 OA
ATOM    363  P    DA A  15     -11.279 -32.156 -33.196  1.00  0.00     0.408 P 
ATOM    364  OP1  DA A  15     -10.635 -32.203 -34.533  1.00  0.00    -0.624 OA
ATOM    365  OP2  DA A  15     -12.756 -32.016 -33.100  1.00  0.00    -0.624 OA
ATOM    366  O5'  DA A  15     -10.835 -33.463 -32.400  1.00  0.00    -0.287 OA
ATOM    367  C5'  DA A  15     -11.793 -34.425 -31.959  1.00  0.00     0.216 C 
ATOM    368  C4'  DA A  15     -11.619 -34.695 -30.484  1.00  0.00     0.180 C 
ATOM    369  O4'  DA A  15     -12.024 -33.512 -29.741  1.00  0.00    -0.353 OA
ATOM    370  C1'  DA A  15     -12.749 -33.895 -28.586  1.00  0.00     0.262 C 
ATOM    371  N9   DA A  15     -14.121 -33.405 -28.722  1.00  0.00    -0.294 N 
ATOM    372  C4   DA A  15     -15.205 -33.805 -27.977  1.00  0.00     0.167 A 
ATOM    373  N3   DA A  15     -15.223 -34.716 -26.989  1.00  0.00    -0.222 NA
ATOM    374  C2   DA A  15     -16.452 -34.847 -26.495  1.00  0.00     0.237 A 
ATOM    375  N1   DA A  15     -17.579 -34.218 -26.850  1.00  0.00    -0.222 NA
ATOM    376  C6   DA A  15     -17.525 -33.308 -27.846  1.00  0.00     0.155 A 
ATOM    377  N6   DA A  15     -18.647 -32.680 -28.197  1.00  0.00    -0.382 N 
ATOM    378  H61  DA A  15     -18.630 -31.995 -28.939  1.00  0.00     0.157 HD
ATOM    379  H62  DA A  15     -19.510 -32.895 -27.719  1.00  0.00     0.157 HD
ATOM    380  C5   DA A  15     -16.279 -33.078 -28.454  1.00  0.00     0.149 A 
ATOM    381  N7   DA A  15     -15.882 -32.233 -29.482  1.00  0.00    -0.236 NA
ATOM    382  C8   DA A  15     -14.597 -32.465 -29.602  1.00  0.00     0.214 A 
ATOM    383  C2'  DA A  15     -12.646 -35.415 -28.464  1.00  0.00     0.199 C 
ATOM    384  O2'  DA A  15     -11.491 -35.730 -27.709  1.00  0.00    -0.388 OA
ATOM    385 'HO2  DA A  15     -11.030 -36.421 -28.186  1.00  0.00     0.210 HD
ATOM    386  C3'  DA A  15     -12.480 -35.819 -29.925  1.00  0.00     0.198 C 
ATOM    387  O3'  DA A  15     -11.846 -37.088 -30.075  1.00  0.00    -0.279 OA
ATOM    388  P    DT A  16     -12.614 -38.428 -29.621  1.00  0.00     0.408 P 
ATOM    389  OP1  DT A  16     -12.946 -38.286 -28.181  1.00  0.00    -0.624 OA
ATOM    390  OP2  DT A  16     -11.804 -39.588 -30.074  1.00  0.00    -0.624 OA
ATOM    391  O5'  DT A  16     -13.970 -38.413 -30.462  1.00  0.00    -0.287 OA
ATOM    392  C5'  DT A  16     -15.126 -37.716 -29.995  1.00  0.00     0.216 C 
ATOM    393  C4'  DT A  16     -15.871 -38.553 -28.983  1.00  0.00     0.180 C 
ATOM    394  O4'  DT A  16     -16.648 -37.654 -28.141  1.00  0.00    -0.353 OA
ATOM    395  C1'  DT A  16     -18.006 -38.039 -28.163  1.00  0.00     0.264 C 
ATOM    396  N1   DT A  16     -18.724 -37.158 -29.097  1.00  0.00    -0.280 N 
ATOM    397  C6   DT A  16     -18.114 -36.050 -29.642  1.00  0.00     0.104 A 
ATOM    398  C2   DT A  16     -20.032 -37.478 -29.414  1.00  0.00     0.331 A 
ATOM    399  O2   DT A  16     -20.609 -38.446 -28.955  1.00  0.00    -0.246 OA
ATOM    400  N3   DT A  16     -20.643 -36.619 -30.292  1.00  0.00    -0.275 N 
ATOM    401  H3   DT A  16     -21.595 -36.836 -30.541  1.00  0.00     0.173 HD
ATOM    402  C4   DT A  16     -20.094 -35.498 -30.871  1.00  0.00     0.250 A 
ATOM    403  O4   DT A  16     -20.775 -34.822 -31.642  1.00  0.00    -0.268 OA
ATOM    404  C5   DT A  16     -18.742 -35.234 -30.494  1.00  0.00     0.092 A 
ATOM    405  C2'  DT A  16     -18.011 -39.514 -28.552  1.00  0.00     0.199 C 
ATOM    406  O2'  DT A  16     -17.696 -40.282 -27.406  1.00  0.00    -0.388 OA
ATOM    407 'HO2  DT A  16     -17.690 -41.201 -27.676  1.00  0.00     0.210 HD
ATOM    408  C3'  DT A  16     -16.876 -39.545 -29.566  1.00  0.00     0.198 C 
ATOM    409  O3'  DT A  16     -16.310 -40.848 -29.697  1.00  0.00    -0.279 OA
ATOM    410  P    DG A  17     -16.658 -41.748 -30.985  1.00  0.00     0.408 P 
ATOM    411  OP1  DG A  17     -15.668 -42.854 -31.026  1.00  0.00    -0.624 OA
ATOM    412  OP2  DG A  17     -16.807 -40.855 -32.163  1.00  0.00    -0.624 OA
ATOM    413  O5'  DG A  17     -18.083 -42.378 -30.652  1.00  0.00    -0.287 OA
ATOM    414  C5'  DG A  17     -18.797 -43.135 -31.630  1.00  0.00     0.216 C 
ATOM    415  C4'  DG A  17     -19.937 -43.893 -30.985  1.00  0.00     0.180 C 
ATOM    416  O4'  DG A  17     -19.594 -45.301 -30.944  1.00  0.00    -0.353 OA
ATOM    417  C1'  DG A  17     -20.176 -45.898 -29.800  1.00  0.00     0.262 C 
ATOM    418  N9   DG A  17     -19.123 -46.563 -29.040  1.00  0.00    -0.293 N 
ATOM    419  C4   DG A  17     -19.299 -47.505 -28.057  1.00  0.00     0.187 A 
ATOM    420  N3   DG A  17     -20.483 -47.982 -27.620  1.00  0.00    -0.044 NA
ATOM    421  C2   DG A  17     -20.330 -48.879 -26.664  1.00  0.00     0.703 A 
ATOM    422  N2   DG A  17     -21.404 -49.455 -26.117  1.00  0.00    -0.233 N 
ATOM    423  H21  DG A  17     -22.323 -49.194 -26.445  1.00  0.00     0.174 HD
ATOM    424  H22  DG A  17     -21.300 -50.138 -25.383  1.00  0.00     0.174 HD
ATOM    425  N1   DG A  17     -19.115 -49.280 -26.174  1.00  0.00    -0.153 N 
ATOM    426  H1   DG A  17     -19.112 -49.971 -25.441  1.00  0.00     0.187 HD
ATOM    427  C6   DG A  17     -17.883 -48.805 -26.607  1.00  0.00     0.292 A 
ATOM    428  O6   DG A  17     -16.844 -49.237 -26.095  1.00  0.00    -0.265 OA
ATOM    429  C5   DG A  17     -18.029 -47.837 -27.636  1.00  0.00     0.173 A 
ATOM    430  N7   DG A  17     -17.072 -47.119 -28.341  1.00  0.00    -0.234 NA
ATOM    431  C8   DG A  17     -17.768 -46.378 -29.160  1.00  0.00     0.214 A 
ATOM    432  C2'  DG A  17     -20.903 -44.810 -29.008  1.00  0.00     0.199 C 
ATOM    433  O2'  DG A  17     -22.277 -44.852 -29.347  1.00  0.00    -0.388 OA
ATOM    434 'HO2  DG A  17     -22.758 -44.585 -28.564  1.00  0.00     0.210 HD
ATOM    435  C3'  DG A  17     -20.240 -43.540 -29.536  1.00  0.00     0.198 C 
ATOM    436  O3'  DG A  17     -21.098 -42.406 -29.446  1.00  0.00    -0.279 OA
ATOM    437  P    DG A  18     -21.364 -41.716 -28.018  1.00  0.00     0.408 P 
ATOM    438  OP1  DG A  18     -22.405 -40.675 -28.214  1.00  0.00    -0.624 OA
ATOM    439  OP2  DG A  18     -20.056 -41.343 -27.428  1.00  0.00    -0.624 OA
ATOM    440  O5'  DG A  18     -21.994 -42.880 -27.130  1.00  0.00    -0.287 OA
ATOM    441  C5'  DG A  18     -21.978 -42.803 -25.706  1.00  0.00     0.216 C 
ATOM    442  C4'  DG A  18     -22.365 -44.135 -25.106  1.00  0.00     0.180 C 
ATOM    443  O4'  DG A  18     -21.565 -45.179 -25.727  1.00  0.00    -0.353 OA
ATOM    444  C1'  DG A  18     -21.125 -46.097 -24.743  1.00  0.00     0.262 C 
ATOM    445  N9   DG A  18     -19.673 -45.989 -24.634  1.00  0.00    -0.293 N 
ATOM    446  C4   DG A  18     -18.820 -46.919 -24.088  1.00  0.00     0.187 A 
ATOM    447  N3   DG A  18     -19.176 -48.106 -23.551  1.00  0.00    -0.044 NA
ATOM    448  C2   DG A  18     -18.129 -48.781 -23.110  1.00  0.00     0.703 A 
ATOM    449  N2   DG A  18     -18.303 -49.979 -22.546  1.00  0.00    -0.233 N 
ATOM    450  H21  DG A  18     -19.234 -50.359 -22.463  1.00  0.00     0.174 HD
ATOM    451  H22  DG A  18     -17.509 -50.500 -22.203  1.00  0.00     0.174 HD
ATOM    452  N1   DG A  18     -16.836 -48.332 -23.187  1.00  0.00    -0.153 N 
ATOM    453  H1   DG A  18     -16.106 -48.924 -22.823  1.00  0.00     0.187 HD
ATOM    454  C6   DG A  18     -16.445 -47.115 -23.733  1.00  0.00     0.292 A 
ATOM    455  O6   DG A  18     -15.248 -46.807 -23.750  1.00  0.00    -0.265 OA
ATOM    456  C5   DG A  18     -17.558 -46.376 -24.214  1.00  0.00     0.173 A 
ATOM    457  N7   DG A  18     -17.616 -45.131 -24.825  1.00  0.00    -0.234 NA
ATOM    458  C8   DG A  18     -18.886 -44.945 -25.055  1.00  0.00     0.214 A 
ATOM    459  C2'  DG A  18     -21.870 -45.770 -23.450  1.00  0.00     0.199 C 
ATOM    460  O2'  DG A  18     -23.095 -46.479 -23.441  1.00  0.00    -0.388 OA
ATOM    461 'HO2  DG A  18     -23.774 -45.849 -23.199  1.00  0.00     0.210 HD
ATOM    462  C3'  DG A  18     -22.100 -44.273 -23.611  1.00  0.00     0.198 C 
ATOM    463  O3'  DG A  18     -23.204 -43.814 -22.834  1.00  0.00    -0.279 OA
ATOM    464  P    DT A  19     -23.163 -42.349 -22.169  1.00  0.00     0.408 P 
ATOM    465  OP1  DT A  19     -24.554 -42.012 -21.771  1.00  0.00    -0.624 OA
ATOM    466  OP2  DT A  19     -22.420 -41.439 -23.075  1.00  0.00    -0.624 OA
ATOM    467  O5'  DT A  19     -22.300 -42.549 -20.843  1.00  0.00    -0.287 OA
ATOM    468  C5'  DT A  19     -22.432 -41.655 -19.739  1.00  0.00     0.216 C 
ATOM    469  C4'  DT A  19     -21.222 -41.753 -18.838  1.00  0.00     0.180 C 
ATOM    470  O4'  DT A  19     -21.129 -43.099 -18.317  1.00  0.00    -0.353 OA
ATOM    471  C1'  DT A  19     -19.775 -43.408 -18.052  1.00  0.00     0.264 C 
ATOM    472  N1   DT A  19     -19.485 -44.730 -18.624  1.00  0.00    -0.280 N 
ATOM    473  C6   DT A  19     -19.781 -45.019 -19.937  1.00  0.00     0.104 A 
ATOM    474  C2   DT A  19     -18.904 -45.677 -17.800  1.00  0.00     0.331 A 
ATOM    475  O2   DT A  19     -18.626 -45.460 -16.635  1.00  0.00    -0.246 OA
ATOM    476  N3   DT A  19     -18.660 -46.889 -18.393  1.00  0.00    -0.275 N 
ATOM    477  H3   DT A  19     -18.242 -47.597 -17.809  1.00  0.00     0.173 HD
ATOM    478  C4   DT A  19     -18.927 -47.244 -19.694  1.00  0.00     0.250 A 
ATOM    479  O4   DT A  19     -18.647 -48.379 -20.081  1.00  0.00    -0.268 OA
ATOM    480  C5   DT A  19     -19.525 -46.213 -20.481  1.00  0.00     0.092 A 
ATOM    481  C2'  DT A  19     -18.899 -42.288 -18.626  1.00  0.00     0.199 C 
ATOM    482  O2'  DT A  19     -18.449 -41.478 -17.558  1.00  0.00    -0.388 OA
ATOM    483 'HO2  DT A  19     -18.438 -40.577 -17.883  1.00  0.00     0.210 HD
ATOM    484  C3'  DT A  19     -19.880 -41.526 -19.517  1.00  0.00     0.198 C 
ATOM    485  O3'  DT A  19     -19.571 -40.136 -19.587  1.00  0.00    -0.279 OA
ATOM    486  P    DA A  20     -19.215 -39.465 -21.004  1.00  0.00     0.408 P 
ATOM    487  OP1  DA A  20     -20.371 -39.691 -21.909  1.00  0.00    -0.624 OA
ATOM    488  OP2  DA A  20     -17.867 -39.940 -21.406  1.00  0.00    -0.624 OA
ATOM    489  O5'  DA A  20     -19.121 -37.907 -20.681  1.00  0.00    -0.287 OA
ATOM    490  C5'  DA A  20     -20.271 -37.063 -20.763  1.00  0.00     0.216 C 
ATOM    491  C4'  DA A  20     -20.501 -36.365 -19.442  1.00  0.00     0.180 C 
ATOM    492  O4'  DA A  20     -20.941 -37.339 -18.478  1.00  0.00    -0.353 OA
ATOM    493  C1'  DA A  20     -20.667 -36.840 -17.198  1.00  0.00     0.262 C 
ATOM    494  N9   DA A  20     -20.593 -37.970 -16.273  1.00  0.00    -0.294 N 
ATOM    495  C4   DA A  20     -20.981 -37.978 -14.955  1.00  0.00     0.167 A 
ATOM    496  N3   DA A  20     -21.502 -36.958 -14.251  1.00  0.00    -0.222 NA
ATOM    497  C2   DA A  20     -21.757 -37.334 -12.999  1.00  0.00     0.237 A 
ATOM    498  N1   DA A  20     -21.567 -38.526 -12.417  1.00  0.00    -0.222 NA
ATOM    499  C6   DA A  20     -21.043 -39.528 -13.154  1.00  0.00     0.155 A 
ATOM    500  N6   DA A  20     -20.856 -40.713 -12.575  1.00  0.00    -0.382 N 
ATOM    501  H61  DA A  20     -20.466 -41.475 -13.112  1.00  0.00     0.157 HD
ATOM    502  H62  DA A  20     -21.099 -40.843 -11.604  1.00  0.00     0.157 HD
ATOM    503  C5   DA A  20     -20.727 -39.257 -14.495  1.00  0.00     0.149 A 
ATOM    504  N7   DA A  20     -20.187 -40.043 -15.504  1.00  0.00    -0.236 NA
ATOM    505  C8   DA A  20     -20.128 -39.235 -16.534  1.00  0.00     0.214 A 
ATOM    506  C2'  DA A  20     -19.371 -36.033 -17.303  1.00  0.00     0.199 C 
ATOM    507  O2'  DA A  20     -19.530 -34.844 -16.552  1.00  0.00    -0.388 OA
ATOM    508 'HO2  DA A  20     -19.038 -34.158 -17.005  1.00  0.00     0.210 HD
ATOM    509  C3'  DA A  20     -19.258 -35.731 -18.810  1.00  0.00     0.198 C 
ATOM    510  O3'  DA A  20     -19.151 -34.323 -19.061  1.00  0.00    -0.279 OA
ATOM    511  P    DG A  21     -20.473 -33.406 -19.185  1.00  0.00     0.408 P 
ATOM    512  OP1  DG A  21     -21.317 -33.637 -17.985  1.00  0.00    -0.624 OA
ATOM    513  OP2  DG A  21     -21.055 -33.603 -20.538  1.00  0.00    -0.624 OA
ATOM    514  O5'  DG A  21     -19.912 -31.917 -19.110  1.00  0.00    -0.287 OA
ATOM    515  C5'  DG A  21     -19.003 -31.422 -20.093  1.00  0.00     0.216 C 
ATOM    516  C4'  DG A  21     -17.826 -30.752 -19.424  1.00  0.00     0.180 C 
ATOM    517  O4'  DG A  21     -16.937 -31.781 -18.909  1.00  0.00    -0.353 OA
ATOM    518  C1'  DG A  21     -15.729 -31.787 -19.646  1.00  0.00     0.262 C 
ATOM    519  N9   DG A  21     -15.407 -33.170 -19.985  1.00  0.00    -0.293 N 
ATOM    520  C4   DG A  21     -14.179 -33.657 -20.367  1.00  0.00     0.187 A 
ATOM    521  N3   DG A  21     -13.044 -32.939 -20.497  1.00  0.00    -0.044 NA
ATOM    522  C2   DG A  21     -12.028 -33.689 -20.881  1.00  0.00     0.703 A 
ATOM    523  N2   DG A  21     -10.825 -33.135 -21.061  1.00  0.00    -0.233 N 
ATOM    524  H21  DG A  21     -10.709 -32.146 -20.900  1.00  0.00     0.174 HD
ATOM    525  H22  DG A  21     -10.043 -33.702 -21.353  1.00  0.00     0.174 HD
ATOM    526  N1   DG A  21     -12.113 -35.037 -21.119  1.00  0.00    -0.153 N 
ATOM    527  H1   DG A  21     -11.279 -35.521 -21.409  1.00  0.00     0.187 HD
ATOM    528  C6   DG A  21     -13.269 -35.798 -20.992  1.00  0.00     0.292 A 
ATOM    529  O6   DG A  21     -13.234 -37.011 -21.231  1.00  0.00    -0.265 OA
ATOM    530  C5   DG A  21     -14.373 -35.006 -20.580  1.00  0.00     0.173 A 
ATOM    531  N7   DG A  21     -15.693 -35.360 -20.336  1.00  0.00    -0.234 NA
ATOM    532  C8   DG A  21     -16.266 -34.241 -19.987  1.00  0.00     0.214 A 
ATOM    533  C2'  DG A  21     -15.930 -30.886 -20.864  1.00  0.00     0.199 C 
ATOM    534  O2'  DG A  21     -14.704 -30.240 -21.157  1.00  0.00    -0.388 OA
ATOM    535 'HO2  DG A  21     -14.500 -29.683 -20.406  1.00  0.00     0.210 HD
ATOM    536  C3'  DG A  21     -16.959 -29.893 -20.337  1.00  0.00     0.198 C 
ATOM    537  O3'  DG A  21     -16.358 -28.819 -19.619  1.00  0.00    -0.279 OA
ATOM    538  P    DA A  22     -16.613 -27.300 -20.084  1.00  0.00     0.408 P 
ATOM    539  OP1  DA A  22     -17.960 -27.228 -20.707  1.00  0.00    -0.624 OA
ATOM    540  OP2  DA A  22     -15.424 -26.846 -20.851  1.00  0.00    -0.624 OA
ATOM    541  O5'  DA A  22     -16.656 -26.483 -18.717  1.00  0.00    -0.287 OA
ATOM    542  C5'  DA A  22     -17.688 -26.706 -17.758  1.00  0.00     0.216 C 
ATOM    543  C4'  DA A  22     -17.109 -26.717 -16.362  1.00  0.00     0.180 C 
ATOM    544  O4'  DA A  22     -16.562 -28.036 -16.093  1.00  0.00    -0.353 OA
ATOM    545  C1'  DA A  22     -15.339 -27.914 -15.388  1.00  0.00     0.262 C 
ATOM    546  N9   DA A  22     -14.266 -28.433 -16.237  1.00  0.00    -0.294 N 
ATOM    547  C4   DA A  22     -12.922 -28.403 -15.955  1.00  0.00     0.167 A 
ATOM    548  N3   DA A  22     -12.331 -27.900 -14.858  1.00  0.00    -0.222 NA
ATOM    549  C2   DA A  22     -11.010 -28.046 -14.928  1.00  0.00     0.237 A 
ATOM    550  N1   DA A  22     -10.269 -28.598 -15.897  1.00  0.00    -0.222 NA
ATOM    551  C6   DA A  22     -10.894 -29.093 -16.986  1.00  0.00     0.155 A 
ATOM    552  N6   DA A  22     -10.153 -29.640 -17.950  1.00  0.00    -0.382 N 
ATOM    553  H61  DA A  22     -10.597 -30.017 -18.774  1.00  0.00     0.157 HD
ATOM    554  H62  DA A  22      -9.150 -29.670 -17.847  1.00  0.00     0.157 HD
ATOM    555  C5   DA A  22     -12.296 -29.000 -17.034  1.00  0.00     0.149 A 
ATOM    556  N7   DA A  22     -13.229 -29.399 -17.982  1.00  0.00    -0.236 NA
ATOM    557  C8   DA A  22     -14.378 -29.042 -17.463  1.00  0.00     0.214 A 
ATOM    558  C2'  DA A  22     -15.171 -26.442 -15.013  1.00  0.00     0.199 C 
ATOM    559  O2'  DA A  22     -15.784 -26.221 -13.757  1.00  0.00    -0.388 OA
ATOM    560 'HO2  DA A  22     -16.345 -25.451 -13.855  1.00  0.00     0.210 HD
ATOM    561  C3'  DA A  22     -15.946 -25.761 -16.133  1.00  0.00     0.198 C 
ATOM    562  O3'  DA A  22     -16.402 -24.461 -15.768  1.00  0.00    -0.279 OA
ATOM    563  P    DC A  23     -15.851 -23.170 -16.555  1.00  0.00     0.408 P 
ATOM    564  OP1  DC A  23     -16.592 -21.990 -16.044  1.00  0.00    -0.624 OA
ATOM    565  OP2  DC A  23     -15.856 -23.466 -18.011  1.00  0.00    -0.624 OA
ATOM    566  O5'  DC A  23     -14.335 -23.047 -16.081  1.00  0.00    -0.287 OA
ATOM    567  C5'  DC A  23     -13.990 -23.076 -14.696  1.00  0.00     0.216 C 
ATOM    568  C4'  DC A  23     -12.491 -23.180 -14.536  1.00  0.00     0.180 C 
ATOM    569  O4'  DC A  23     -12.103 -24.576 -14.675  1.00  0.00    -0.353 OA
ATOM    570  C1'  DC A  23     -10.980 -24.678 -15.533  1.00  0.00     0.264 C 
ATOM    571  N1   DC A  23     -11.418 -25.278 -16.805  1.00  0.00    -0.278 N 
ATOM    572  C6   DC A  23     -12.723 -25.197 -17.204  1.00  0.00     0.102 A 
ATOM    573  C2   DC A  23     -10.477 -25.935 -17.603  1.00  0.00     0.352 A 
ATOM    574  O2   DC A  23      -9.301 -25.995 -17.219  1.00  0.00    -0.244 OA
ATOM    575  N3   DC A  23     -10.874 -26.487 -18.773  1.00  0.00    -0.177 NA
ATOM    576  C4   DC A  23     -12.150 -26.402 -19.151  1.00  0.00     0.128 A 
ATOM    577  N4   DC A  23     -12.494 -26.962 -20.310  1.00  0.00    -0.384 N 
ATOM    578  H41  DC A  23     -13.451 -26.918 -20.631  1.00  0.00     0.157 HD
ATOM    579  H42  DC A  23     -11.794 -27.431 -20.864  1.00  0.00     0.157 HD
ATOM    580  C5   DC A  23     -13.129 -25.739 -18.359  1.00  0.00     0.067 A 
ATOM    581  C2'  DC A  23     -10.407 -23.271 -15.677  1.00  0.00     0.199 C 
ATOM    582  O2'  DC A  23      -9.544 -23.015 -14.584  1.00  0.00    -0.388 OA
ATOM    583 'HO2  DC A  23      -9.738 -22.127 -14.282  1.00  0.00     0.210 HD
ATOM    584  C3'  DC A  23     -11.676 -22.434 -15.585  1.00  0.00     0.198 C 
ATOM    585  O3'  DC A  23     -11.420 -21.090 -15.190  1.00  0.00    -0.279 OA
ATOM    586  P    DA A  24     -11.621 -19.895 -16.248  1.00  0.00     0.408 P 
ATOM    587  OP1  DA A  24     -11.332 -18.622 -15.541  1.00  0.00    -0.624 OA
ATOM    588  OP2  DA A  24     -12.933 -20.079 -16.921  1.00  0.00    -0.624 OA
ATOM    589  O5'  DA A  24     -10.474 -20.140 -17.327  1.00  0.00    -0.287 OA
ATOM    590  C5'  DA A  24      -9.112 -20.286 -16.930  1.00  0.00     0.216 C 
ATOM    591  C4'  DA A  24      -8.305 -20.896 -18.052  1.00  0.00     0.180 C 
ATOM    592  O4'  DA A  24      -8.700 -22.284 -18.217  1.00  0.00    -0.353 OA
ATOM    593  C1'  DA A  24      -8.707 -22.620 -19.593  1.00  0.00     0.262 C 
ATOM    594  N9   DA A  24     -10.070 -23.001 -19.966  1.00  0.00    -0.294 N 
ATOM    595  C4   DA A  24     -10.453 -23.607 -21.138  1.00  0.00     0.167 A 
ATOM    596  N3   DA A  24      -9.665 -23.965 -22.166  1.00  0.00    -0.222 NA
ATOM    597  C2   DA A  24     -10.383 -24.526 -23.135  1.00  0.00     0.237 A 
ATOM    598  N1   DA A  24     -11.702 -24.752 -23.189  1.00  0.00    -0.222 NA
ATOM    599  C6   DA A  24     -12.465 -24.382 -22.139  1.00  0.00     0.155 A 
ATOM    600  N6   DA A  24     -13.777 -24.612 -22.192  1.00  0.00    -0.382 N 
ATOM    601  H61  DA A  24     -14.370 -24.345 -21.419  1.00  0.00     0.157 HD
ATOM    602  H62  DA A  24     -14.180 -25.052 -23.007  1.00  0.00     0.157 HD
ATOM    603  C5   DA A  24     -11.823 -23.773 -21.046  1.00  0.00     0.149 A 
ATOM    604  N7   DA A  24     -12.297 -23.281 -19.838  1.00  0.00    -0.236 NA
ATOM    605  C8   DA A  24     -11.220 -22.835 -19.237  1.00  0.00     0.214 A 
ATOM    606  C2'  DA A  24      -8.174 -21.415 -20.369  1.00  0.00     0.199 C 
ATOM    607  O2'  DA A  24      -6.772 -21.552 -20.515  1.00  0.00    -0.388 OA
ATOM    608 'HO2  DA A  24      -6.381 -20.751 -20.163  1.00  0.00     0.210 HD
ATOM    609  C3'  DA A  24      -8.521 -20.271 -19.423  1.00  0.00     0.198 C 
ATOM    610  O3'  DA A  24      -7.683 -19.134 -19.614  1.00  0.00    -0.279 OA
ATOM    611  P    DC A  25      -8.317 -17.754 -20.143  1.00  0.00     0.408 P 
ATOM    612  OP1  DC A  25      -7.233 -16.739 -20.138  1.00  0.00    -0.624 OA
ATOM    613  OP2  DC A  25      -9.571 -17.491 -19.393  1.00  0.00    -0.624 OA
ATOM    614  O5'  DC A  25      -8.699 -18.065 -21.658  1.00  0.00    -0.287 OA
ATOM    615  C5'  DC A  25      -7.708 -18.484 -22.595  1.00  0.00     0.216 C 
ATOM    616  C4'  DC A  25      -8.274 -18.469 -23.997  1.00  0.00     0.180 C 
ATOM    617  O4'  DC A  25      -8.810 -19.787 -24.301  1.00  0.00    -0.353 OA
ATOM    618  C1'  DC A  25      -9.998 -19.654 -25.061  1.00  0.00     0.264 C 
ATOM    619  N1   DC A  25     -11.123 -20.186 -24.276  1.00  0.00    -0.278 N 
ATOM    620  C6   DC A  25     -11.008 -20.390 -22.928  1.00  0.00     0.102 A 
ATOM    621  C2   DC A  25     -12.321 -20.477 -24.932  1.00  0.00     0.352 A 
ATOM    622  O2   DC A  25     -12.396 -20.290 -26.154  1.00  0.00    -0.244 OA
ATOM    623  N3   DC A  25     -13.366 -20.953 -24.222  1.00  0.00    -0.177 NA
ATOM    624  C4   DC A  25     -13.247 -21.145 -22.908  1.00  0.00     0.128 A 
ATOM    625  N4   DC A  25     -14.308 -21.613 -22.251  1.00  0.00    -0.384 N 
ATOM    626  H41  DC A  25     -14.260 -21.771 -21.256  1.00  0.00     0.157 HD
ATOM    627  H42  DC A  25     -15.164 -21.803 -22.755  1.00  0.00     0.157 HD
ATOM    628  C5   DC A  25     -12.035 -20.863 -22.211  1.00  0.00     0.067 A 
ATOM    629  C2'  DC A  25     -10.155 -18.175 -25.408  1.00  0.00     0.199 C 
ATOM    630  O2'  DC A  25      -9.479 -17.923 -26.626  1.00  0.00    -0.388 OA
ATOM    631 'HO2  DC A  25     -10.115 -17.517 -27.217  1.00  0.00     0.210 HD
ATOM    632  C3'  DC A  25      -9.447 -17.526 -24.227  1.00  0.00     0.198 C 
ATOM    633  O3'  DC A  25      -9.019 -16.197 -24.512  1.00  0.00    -0.279 OA
ATOM    634  P    DG A  26     -10.088 -14.995 -24.498  1.00  0.00     0.408 P 
ATOM    635  OP1  DG A  26      -9.327 -13.721 -24.561  1.00  0.00    -0.624 OA
ATOM    636  OP2  DG A  26     -11.043 -15.225 -23.383  1.00  0.00    -0.624 OA
ATOM    637  O5'  DG A  26     -10.883 -15.167 -25.870  1.00  0.00    -0.287 OA
ATOM    638  C5'  DG A  26     -10.242 -14.938 -27.123  1.00  0.00     0.216 C 
ATOM    639  C4'  DG A  26     -11.242 -15.048 -28.251  1.00  0.00     0.180 C 
ATOM    640  O4'  DG A  26     -11.823 -16.382 -28.253  1.00  0.00    -0.353 OA
ATOM    641  C1'  DG A  26     -13.184 -16.307 -28.648  1.00  0.00     0.262 C 
ATOM    642  N9   DG A  26     -14.013 -16.797 -27.551  1.00  0.00    -0.293 N 
ATOM    643  C4   DG A  26     -15.323 -17.205 -27.634  1.00  0.00     0.187 A 
ATOM    644  N3   DG A  26     -16.078 -17.226 -28.752  1.00  0.00    -0.044 NA
ATOM    645  C2   DG A  26     -17.300 -17.668 -28.513  1.00  0.00     0.703 A 
ATOM    646  N2   DG A  26     -18.180 -17.754 -29.514  1.00  0.00    -0.233 N 
ATOM    647  H21  DG A  26     -17.899 -17.479 -30.444  1.00  0.00     0.174 HD
ATOM    648  H22  DG A  26     -19.116 -18.095 -29.346  1.00  0.00     0.174 HD
ATOM    649  N1   DG A  26     -17.749 -18.058 -27.277  1.00  0.00    -0.153 N 
ATOM    650  H1   DG A  26     -18.703 -18.380 -27.201  1.00  0.00     0.187 HD
ATOM    651  C6   DG A  26     -16.991 -18.046 -26.112  1.00  0.00     0.292 A 
ATOM    652  O6   DG A  26     -17.496 -18.422 -25.047  1.00  0.00    -0.265 OA
ATOM    653  C5   DG A  26     -15.674 -17.573 -26.352  1.00  0.00     0.173 A 
ATOM    654  N7   DG A  26     -14.606 -17.401 -25.480  1.00  0.00    -0.234 NA
ATOM    655  C8   DG A  26     -13.647 -16.939 -26.235  1.00  0.00     0.214 A 
ATOM    656  C2'  DG A  26     -13.470 -14.853 -29.023  1.00  0.00     0.199 C 
ATOM    657  O2'  DG A  26     -13.193 -14.675 -30.400  1.00  0.00    -0.388 OA
ATOM    658 'HO2  DG A  26     -12.749 -13.831 -30.485  1.00  0.00     0.210 HD
ATOM    659  C3'  DG A  26     -12.449 -14.127 -28.157  1.00  0.00     0.198 C 
ATOM    660  O3'  DG A  26     -12.160 -12.816 -28.635  1.00  0.00    -0.279 OA
ATOM    661  P    DC A  27     -12.884 -11.545 -27.967  1.00  0.00     0.408 P 
ATOM    662  OP1  DC A  27     -12.413 -10.336 -28.690  1.00  0.00    -0.624 OA
ATOM    663  OP2  DC A  27     -12.717 -11.630 -26.494  1.00  0.00    -0.624 OA
ATOM    664  O5'  DC A  27     -14.428 -11.757 -28.304  1.00  0.00    -0.287 OA
ATOM    665  C5'  DC A  27     -14.887 -11.785 -29.655  1.00  0.00     0.216 C 
ATOM    666  C4'  DC A  27     -16.282 -12.366 -29.721  1.00  0.00     0.180 C 
ATOM    667  O4'  DC A  27     -16.276 -13.695 -29.139  1.00  0.00    -0.353 OA
ATOM    668  C1'  DC A  27     -17.533 -13.954 -28.537  1.00  0.00     0.264 C 
ATOM    669  N1   DC A  27     -17.312 -14.325 -27.129  1.00  0.00    -0.278 N 
ATOM    670  C6   DC A  27     -16.092 -14.148 -26.537  1.00  0.00     0.102 A 
ATOM    671  C2   DC A  27     -18.375 -14.864 -26.401  1.00  0.00     0.352 A 
ATOM    672  O2   DC A  27     -19.471 -15.016 -26.960  1.00  0.00    -0.244 OA
ATOM    673  N3   DC A  27     -18.186 -15.207 -25.109  1.00  0.00    -0.177 NA
ATOM    674  C4   DC A  27     -16.992 -15.034 -24.541  1.00  0.00     0.128 A 
ATOM    675  N4   DC A  27     -16.853 -15.392 -23.266  1.00  0.00    -0.384 N 
ATOM    676  H41  DC A  27     -15.965 -15.278 -22.798  1.00  0.00     0.157 HD
ATOM    677  H42  DC A  27     -17.640 -15.784 -22.767  1.00  0.00     0.157 HD
ATOM    678  C5   DC A  27     -15.888 -14.488 -25.258  1.00  0.00     0.067 A 
ATOM    679  C2'  DC A  27     -18.401 -12.705 -28.710  1.00  0.00     0.199 C 
ATOM    680  O2'  DC A  27     -19.204 -12.873 -29.863  1.00  0.00    -0.388 OA
ATOM    681 'HO2  DC A  27     -19.145 -12.059 -30.365  1.00  0.00     0.210 HD
ATOM    682  C3'  DC A  27     -17.344 -11.627 -28.923  1.00  0.00     0.198 C 
ATOM    683  O3'  DC A  27     -17.853 -10.503 -29.636  1.00  0.00    -0.279 OA
ATOM    684  P    DC A  28     -18.564  -9.301 -28.835  1.00  0.00     0.408 P 
ATOM    685  OP1  DC A  28     -18.911  -8.252 -29.829  1.00  0.00    -0.624 OA
ATOM    686  OP2  DC A  28     -17.719  -8.952 -27.665  1.00  0.00    -0.624 OA
ATOM    687  O5'  DC A  28     -19.919  -9.944 -28.293  1.00  0.00    -0.287 OA
ATOM    688  C5'  DC A  28     -21.085 -10.002 -29.113  1.00  0.00     0.216 C 
ATOM    689  C4'  DC A  28     -22.300 -10.334 -28.276  1.00  0.00     0.180 C 
ATOM    690  O4'  DC A  28     -22.142 -11.668 -27.719  1.00  0.00    -0.353 OA
ATOM    691  C1'  DC A  28     -22.681 -11.704 -26.408  1.00  0.00     0.264 C 
ATOM    692  N1   DC A  28     -21.595 -12.017 -25.466  1.00  0.00    -0.278 N 
ATOM    693  C6   DC A  28     -20.296 -11.724 -25.773  1.00  0.00     0.102 A 
ATOM    694  C2   DC A  28     -21.912 -12.621 -24.247  1.00  0.00     0.352 A 
ATOM    695  O2   DC A  28     -23.099 -12.874 -23.991  1.00  0.00    -0.244 OA
ATOM    696  N3   DC A  28     -20.922 -12.913 -23.376  1.00  0.00    -0.177 NA
ATOM    697  C4   DC A  28     -19.657 -12.626 -23.686  1.00  0.00     0.128 A 
ATOM    698  N4   DC A  28     -18.714 -12.935 -22.796  1.00  0.00    -0.384 N 
ATOM    699  H41  DC A  28     -17.744 -12.737 -22.988  1.00  0.00     0.157 HD
ATOM    700  H42  DC A  28     -18.979 -13.373 -21.924  1.00  0.00     0.157 HD
ATOM    701  C5   DC A  28     -19.303 -12.010 -24.921  1.00  0.00     0.067 A 
ATOM    702  C2'  DC A  28     -23.345 -10.352 -26.148  1.00  0.00     0.199 C 
ATOM    703  O2'  DC A  28     -24.694 -10.426 -26.568  1.00  0.00    -0.388 OA
ATOM    704 'HO2  DC A  28     -24.827  -9.721 -27.203  1.00  0.00     0.210 HD
ATOM    705  C3'  DC A  28     -22.530  -9.446 -27.061  1.00  0.00     0.198 C 
ATOM    706  O3'  DC A  28     -23.229  -8.251 -27.402  1.00  0.00    -0.279 OA
ATOM    707  P    DG A  29     -23.267  -7.024 -26.363  1.00  0.00     0.408 P 
ATOM    708  OP1  DG A  29     -24.015  -5.919 -27.016  1.00  0.00    -0.624 OA
ATOM    709  OP2  DG A  29     -21.887  -6.784 -25.870  1.00  0.00    -0.624 OA
ATOM    710  O5'  DG A  29     -24.147  -7.569 -25.150  1.00  0.00    -0.287 OA
ATOM    711  C5'  DG A  29     -25.522  -7.906 -25.333  1.00  0.00     0.216 C 
ATOM    712  C4'  DG A  29     -26.219  -8.012 -23.995  1.00  0.00     0.180 C 
ATOM    713  O4'  DG A  29     -25.909  -9.294 -23.391  1.00  0.00    -0.353 OA
ATOM    714  C1'  DG A  29     -25.948  -9.171 -21.981  1.00  0.00     0.262 C 
ATOM    715  N9   DG A  29     -24.696  -9.685 -21.435  1.00  0.00    -0.293 N 
ATOM    716  C4   DG A  29     -24.523 -10.275 -20.207  1.00  0.00     0.187 A 
ATOM    717  N3   DG A  29     -25.488 -10.494 -19.289  1.00  0.00    -0.044 NA
ATOM    718  C2   DG A  29     -25.013 -11.077 -18.203  1.00  0.00     0.703 A 
ATOM    719  N2   DG A  29     -25.837 -11.369 -17.192  1.00  0.00    -0.233 N 
ATOM    720  H21  DG A  29     -26.817 -11.139 -17.271  1.00  0.00     0.174 HD
ATOM    721  H22  DG A  29     -25.484 -11.818 -16.360  1.00  0.00     0.174 HD
ATOM    722  N1   DG A  29     -23.697 -11.416 -18.027  1.00  0.00    -0.153 N 
ATOM    723  H1   DG A  29     -23.434 -11.859 -17.159  1.00  0.00     0.187 HD
ATOM    724  C6   DG A  29     -22.685 -11.201 -18.955  1.00  0.00     0.292 A 
ATOM    725  O6   DG A  29     -21.526 -11.543 -18.689  1.00  0.00    -0.265 OA
ATOM    726  C5   DG A  29     -23.180 -10.578 -20.132  1.00  0.00     0.173 A 
ATOM    727  N7   DG A  29     -22.522 -10.192 -21.292  1.00  0.00    -0.234 NA
ATOM    728  C8   DG A  29     -23.460  -9.669 -22.034  1.00  0.00     0.214 A 
ATOM    729  C2'  DG A  29     -26.199  -7.699 -21.642  1.00  0.00     0.199 C 
ATOM    730  O2'  DG A  29     -27.580  -7.528 -21.382  1.00  0.00    -0.388 OA
ATOM    731 'HO2  DG A  29     -27.651  -7.269 -20.462  1.00  0.00     0.210 HD
ATOM    732  C3'  DG A  29     -25.786  -7.008 -22.939  1.00  0.00     0.198 C 
ATOM    733  O3'  DG A  29     -26.431  -5.749 -23.115  1.00  0.00    -0.279 OA
ATOM    734  P    DG A  30     -25.786  -4.424 -22.469  1.00  0.00     0.408 P 
ATOM    735  OP1  DG A  30     -26.708  -3.295 -22.759  1.00  0.00    -0.624 OA
ATOM    736  OP2  DG A  30     -24.367  -4.338 -22.899  1.00  0.00    -0.624 OA
ATOM    737  O5'  DG A  30     -25.816  -4.699 -20.899  1.00  0.00    -0.287 OA
ATOM    738  C5'  DG A  30     -26.976  -4.406 -20.121  1.00  0.00     0.216 C 
ATOM    739  C4'  DG A  30     -26.945  -5.179 -18.821  1.00  0.00     0.180 C 
ATOM    740  O4'  DG A  30     -26.371  -6.492 -19.064  1.00  0.00    -0.353 OA
ATOM    741  C1'  DG A  30     -25.542  -6.863 -17.978  1.00  0.00     0.262 C 
ATOM    742  N9   DG A  30     -24.174  -7.005 -18.470  1.00  0.00    -0.293 N 
ATOM    743  C4   DG A  30     -23.163  -7.719 -17.874  1.00  0.00     0.187 A 
ATOM    744  N3   DG A  30     -23.257  -8.417 -16.723  1.00  0.00    -0.044 NA
ATOM    745  C2   DG A  30     -22.114  -8.997 -16.405  1.00  0.00     0.703 A 
ATOM    746  N2   DG A  30     -22.031  -9.725 -15.288  1.00  0.00    -0.233 N 
ATOM    747  H21  DG A  30     -22.847  -9.821 -14.699  1.00  0.00     0.174 HD
ATOM    748  H22  DG A  30     -21.167 -10.178 -15.033  1.00  0.00     0.174 HD
ATOM    749  N1   DG A  30     -20.970  -8.906 -17.155  1.00  0.00    -0.153 N 
ATOM    750  H1   DG A  30     -20.148  -9.389 -16.828  1.00  0.00     0.187 HD
ATOM    751  C6   DG A  30     -20.849  -8.194 -18.343  1.00  0.00     0.292 A 
ATOM    752  O6   DG A  30     -19.768  -8.178 -18.941  1.00  0.00    -0.265 OA
ATOM    753  C5   DG A  30     -22.069  -7.561 -18.698  1.00  0.00     0.173 A 
ATOM    754  N7   DG A  30     -22.385  -6.764 -19.790  1.00  0.00    -0.234 NA
ATOM    755  C8   DG A  30     -23.640  -6.458 -19.611  1.00  0.00     0.214 A 
ATOM    756  C2'  DG A  30     -25.698  -5.799 -16.891  1.00  0.00     0.199 C 
ATOM    757  O2'  DG A  30     -26.755  -6.182 -16.031  1.00  0.00    -0.388 OA
ATOM    758 'HO2  DG A  30     -27.269  -5.393 -15.862  1.00  0.00     0.210 HD
ATOM    759  C3'  DG A  30     -26.080  -4.578 -17.720  1.00  0.00     0.198 C 
ATOM    760  O3'  DG A  30     -26.801  -3.611 -16.959  1.00  0.00    -0.279 OA
ATOM    761  P    DA A  31     -26.003  -2.482 -16.137  1.00  0.00     0.408 P 
ATOM    762  OP1  DA A  31     -27.000  -1.757 -15.307  1.00  0.00    -0.624 OA
ATOM    763  OP2  DA A  31     -25.153  -1.724 -17.090  1.00  0.00    -0.624 OA
ATOM    764  O5'  DA A  31     -25.050  -3.310 -15.165  1.00  0.00    -0.287 OA
ATOM    765  C5'  DA A  31     -25.550  -3.893 -13.961  1.00  0.00     0.216 C 
ATOM    766  C4'  DA A  31     -24.404  -4.286 -13.057  1.00  0.00     0.180 C 
ATOM    767  O4'  DA A  31     -23.633  -5.332 -13.711  1.00  0.00    -0.353 OA
ATOM    768  C1'  DA A  31     -22.250  -5.068 -13.572  1.00  0.00     0.262 C 
ATOM    769  N9   DA A  31     -21.708  -4.743 -14.890  1.00  0.00    -0.294 N 
ATOM    770  C4   DA A  31     -20.395  -4.853 -15.280  1.00  0.00     0.167 A 
ATOM    771  N3   DA A  31     -19.357  -5.276 -14.537  1.00  0.00    -0.222 NA
ATOM    772  C2   DA A  31     -18.231  -5.248 -15.248  1.00  0.00     0.237 A 
ATOM    773  N1   DA A  31     -18.041  -4.874 -16.519  1.00  0.00    -0.222 NA
ATOM    774  C6   DA A  31     -19.105  -4.455 -17.235  1.00  0.00     0.155 A 
ATOM    775  N6   DA A  31     -18.913  -4.083 -18.501  1.00  0.00    -0.382 N 
ATOM    776  H61  DA A  31     -19.694  -3.765 -19.058  1.00  0.00     0.157 HD
ATOM    777  H62  DA A  31     -17.984  -4.115 -18.894  1.00  0.00     0.157 HD
ATOM    778  C5   DA A  31     -20.357  -4.436 -16.598  1.00  0.00     0.149 A 
ATOM    779  N7   DA A  31     -21.623  -4.071 -17.034  1.00  0.00    -0.236 NA
ATOM    780  C8   DA A  31     -22.386  -4.271 -15.988  1.00  0.00     0.214 A 
ATOM    781  C2'  DA A  31     -22.101  -3.941 -12.552  1.00  0.00     0.199 C 
ATOM    782  O2'  DA A  31     -22.039  -4.511 -11.258  1.00  0.00    -0.388 OA
ATOM    783 'HO2  DA A  31     -22.812  -5.069 -11.162  1.00  0.00     0.210 HD
ATOM    784  C3'  DA A  31     -23.403  -3.176 -12.760  1.00  0.00     0.198 C 
ATOM    785  O3'  DA A  31     -23.784  -2.433 -11.606  1.00  0.00    -0.279 OA
ATOM    786  P    DT A  32     -23.357  -0.888 -11.471  1.00  0.00     0.408 P 
ATOM    787  OP1  DT A  32     -23.853  -0.411 -10.155  1.00  0.00    -0.624 OA
ATOM    788  OP2  DT A  32     -23.765  -0.178 -12.710  1.00  0.00    -0.624 OA
ATOM    789  O5'  DT A  32     -21.764  -0.927 -11.414  1.00  0.00    -0.287 OA
ATOM    790  C5'  DT A  32     -20.995   0.269 -11.539  1.00  0.00     0.216 C 
ATOM    791  C4'  DT A  32     -19.616   0.066 -10.953  1.00  0.00     0.180 C 
ATOM    792  O4'  DT A  32     -19.750  -0.299  -9.555  1.00  0.00    -0.353 OA
ATOM    793  C1'  DT A  32     -18.737  -1.224  -9.203  1.00  0.00     0.264 C 
ATOM    794  N1   DT A  32     -19.381  -2.444  -8.694  1.00  0.00    -0.280 N 
ATOM    795  C6   DT A  32     -20.682  -2.756  -9.021  1.00  0.00     0.104 A 
ATOM    796  C2   DT A  32     -18.636  -3.269  -7.872  1.00  0.00     0.331 A 
ATOM    797  O2   DT A  32     -17.482  -3.032  -7.564  1.00  0.00    -0.246 OA
ATOM    798  N3   DT A  32     -19.292  -4.386  -7.423  1.00  0.00    -0.275 N 
ATOM    799  H3   DT A  32     -18.767  -5.001  -6.821  1.00  0.00     0.173 HD
ATOM    800  C4   DT A  32     -20.587  -4.756  -7.706  1.00  0.00     0.250 A 
ATOM    801  O4   DT A  32     -21.039  -5.790  -7.215  1.00  0.00    -0.268 OA
ATOM    802  C5   DT A  32     -21.289  -3.856  -8.565  1.00  0.00     0.092 A 
ATOM    803  C2'  DT A  32     -17.859  -1.458 -10.435  1.00  0.00     0.199 C 
ATOM    804  O2'  DT A  32     -16.747  -0.586 -10.366  1.00  0.00    -0.388 OA
ATOM    805 'HO2  DT A  32     -15.974  -1.139 -10.243  1.00  0.00     0.210 HD
ATOM    806  C3'  DT A  32     -18.803  -1.064 -11.568  1.00  0.00     0.198 C 
ATOM    807  O3'  DT A  32     -18.103  -0.621 -12.728  1.00  0.00    -0.279 OA
ATOM    808  P    DT A  33     -17.775  -1.659 -13.911  1.00  0.00     0.408 P 
ATOM    809  OP1  DT A  33     -17.145  -0.887 -15.012  1.00  0.00    -0.624 OA
ATOM    810  OP2  DT A  33     -18.996  -2.458 -14.182  1.00  0.00    -0.624 OA
ATOM    811  O5'  DT A  33     -16.673  -2.625 -13.285  1.00  0.00    -0.287 OA
ATOM    812  C5'  DT A  33     -15.430  -2.108 -12.809  1.00  0.00     0.216 C 
ATOM    813  C4'  DT A  33     -14.624  -3.206 -12.156  1.00  0.00     0.180 C 
ATOM    814  O4'  DT A  33     -15.190  -3.485 -10.847  1.00  0.00    -0.353 OA
ATOM    815  C1'  DT A  33     -15.189  -4.881 -10.611  1.00  0.00     0.264 C 
ATOM    816  N1   DT A  33     -16.584  -5.328 -10.493  1.00  0.00    -0.280 N 
ATOM    817  C6   DT A  33     -17.556  -4.854 -11.345  1.00  0.00     0.104 A 
ATOM    818  C2   DT A  33     -16.889  -6.241  -9.500  1.00  0.00     0.331 A 
ATOM    819  O2   DT A  33     -16.058  -6.681  -8.726  1.00  0.00    -0.246 OA
ATOM    820  N3   DT A  33     -18.206  -6.618  -9.446  1.00  0.00    -0.275 N 
ATOM    821  H3   DT A  33     -18.451  -7.289  -8.734  1.00  0.00     0.173 HD
ATOM    822  C4   DT A  33     -19.226  -6.185 -10.262  1.00  0.00     0.250 A 
ATOM    823  O4   DT A  33     -20.362  -6.625 -10.093  1.00  0.00    -0.268 OA
ATOM    824  C5   DT A  33     -18.830  -5.243 -11.260  1.00  0.00     0.092 A 
ATOM    825  C2'  DT A  33     -14.424  -5.546 -11.755  1.00  0.00     0.199 C 
ATOM    826  O2'  DT A  33     -13.057  -5.630 -11.404  1.00  0.00    -0.388 OA
ATOM    827 'HO2  DT A  33     -12.646  -4.827 -11.731  1.00  0.00     0.210 HD
ATOM    828  C3'  DT A  33     -14.637  -4.544 -12.883  1.00  0.00     0.198 C 
ATOM    829  O3'  DT A  33     -13.604  -4.609 -13.862  1.00  0.00    -0.279 OA
ATOM    830  P    DT A  34     -13.982  -4.805 -15.411  1.00  0.00     0.408 P 
ATOM    831  OP1  DT A  34     -12.822  -5.464 -16.066  1.00  0.00    -0.624 OA
ATOM    832  OP2  DT A  34     -14.481  -3.509 -15.936  1.00  0.00    -0.624 OA
ATOM    833  O5'  DT A  34     -15.198  -5.836 -15.385  1.00  0.00    -0.287 OA
ATOM    834  C5'  DT A  34     -14.990  -7.230 -15.606  1.00  0.00     0.216 C 
ATOM    835  C4'  DT A  34     -14.596  -7.910 -14.315  1.00  0.00     0.180 C 
ATOM    836  O4'  DT A  34     -15.668  -7.727 -13.347  1.00  0.00    -0.353 OA
ATOM    837  C1'  DT A  34     -16.237  -8.979 -13.020  1.00  0.00     0.264 C 
ATOM    838  N1   DT A  34     -17.696  -8.817 -12.927  1.00  0.00    -0.280 N 
ATOM    839  C6   DT A  34     -18.368  -9.104 -11.761  1.00  0.00     0.104 A 
ATOM    840  C2   DT A  34     -18.374  -8.365 -14.046  1.00  0.00     0.331 A 
ATOM    841  O2   DT A  34     -17.822  -8.115 -15.101  1.00  0.00    -0.246 OA
ATOM    842  N3   DT A  34     -19.728  -8.222 -13.885  1.00  0.00    -0.275 N 
ATOM    843  H3   DT A  34     -20.241  -7.866 -14.677  1.00  0.00     0.173 HD
ATOM    844  C4   DT A  34     -20.460  -8.490 -12.752  1.00  0.00     0.250 A 
ATOM    845  O4   DT A  34     -21.678  -8.316 -12.767  1.00  0.00    -0.268 OA
ATOM    846  C5   DT A  34     -19.691  -8.962 -11.644  1.00  0.00     0.092 A 
ATOM    847  C2'  DT A  34     -15.782  -9.965 -14.093  1.00  0.00     0.199 C 
ATOM    848  O2'  DT A  34     -15.717 -11.258 -13.518  1.00  0.00    -0.388 OA
ATOM    849 'HO2  DT A  34     -14.906 -11.666 -13.817  1.00  0.00     0.210 HD
ATOM    850  C3'  DT A  34     -14.397  -9.419 -14.421  1.00  0.00     0.198 C 
ATOM    851  O3'  DT A  34     -13.396  -9.873 -13.512  1.00  0.00    -0.279 OA
ATOM    852  P    DA A  35     -12.462 -11.122 -13.907  1.00  0.00     0.408 P 
ATOM    853  OP1  DA A  35     -12.079 -10.965 -15.332  1.00  0.00    -0.624 OA
ATOM    854  OP2  DA A  35     -13.148 -12.363 -13.464  1.00  0.00    -0.624 OA
ATOM    855  O5'  DA A  35     -11.152 -10.925 -13.021  1.00  0.00    -0.287 OA
ATOM    856  C5'  DA A  35     -10.400  -9.713 -13.081  1.00  0.00     0.216 C 
ATOM    857  C4'  DA A  35      -8.918 -10.013 -13.140  1.00  0.00     0.180 C 
ATOM    858  O4'  DA A  35      -8.265  -9.305 -12.048  1.00  0.00    -0.353 OA
ATOM    859  C1'  DA A  35      -7.390 -10.181 -11.366  1.00  0.00     0.262 C 
ATOM    860  N9   DA A  35      -7.995 -10.527 -10.080  1.00  0.00    -0.294 N 
ATOM    861  C4   DA A  35      -7.326 -10.850  -8.925  1.00  0.00     0.167 A 
ATOM    862  N3   DA A  35      -5.996 -10.910  -8.744  1.00  0.00    -0.222 NA
ATOM    863  C2   DA A  35      -5.708 -11.259  -7.492  1.00  0.00     0.237 A 
ATOM    864  N1   DA A  35      -6.538 -11.535  -6.476  1.00  0.00    -0.222 NA
ATOM    865  C6   DA A  35      -7.869 -11.464  -6.692  1.00  0.00     0.155 A 
ATOM    866  N6   DA A  35      -8.694 -11.736  -5.679  1.00  0.00    -0.382 N 
ATOM    867  H61  DA A  35      -9.695 -11.691  -5.809  1.00  0.00     0.157 HD
ATOM    868  H62  DA A  35      -8.319 -11.989  -4.776  1.00  0.00     0.157 HD
ATOM    869  C5   DA A  35      -8.304 -11.104  -7.981  1.00  0.00     0.149 A 
ATOM    870  N7   DA A  35      -9.569 -10.941  -8.530  1.00  0.00    -0.236 NA
ATOM    871  C8   DA A  35      -9.330 -10.601  -9.773  1.00  0.00     0.214 A 
ATOM    872  C2'  DA A  35      -7.167 -11.379 -12.284  1.00  0.00     0.199 C 
ATOM    873  O2'  DA A  35      -6.155 -11.054 -13.219  1.00  0.00    -0.388 OA
ATOM    874 'HO2  DA A  35      -6.458 -11.372 -14.070  1.00  0.00     0.210 HD
ATOM    875  C3'  DA A  35      -8.528 -11.478 -12.959  1.00  0.00     0.198 C 
ATOM    876  O3'  DA A  35      -8.463 -12.164 -14.207  1.00  0.00    -0.279 OA
ATOM    877  P    DG A  36      -8.380 -13.771 -14.232  1.00  0.00     0.408 P 
ATOM    878  OP1  DG A  36      -8.370 -14.186 -15.658  1.00  0.00    -0.624 OA
ATOM    879  OP2  DG A  36      -9.419 -14.310 -13.319  1.00  0.00    -0.624 OA
ATOM    880  O5'  DG A  36      -6.949 -14.097 -13.609  1.00  0.00    -0.287 OA
ATOM    881  C5'  DG A  36      -5.759 -13.957 -14.386  1.00  0.00     0.216 C 
ATOM    882  C4'  DG A  36      -4.543 -14.291 -13.551  1.00  0.00     0.180 C 
ATOM    883  O4'  DG A  36      -4.674 -13.677 -12.243  1.00  0.00    -0.353 OA
ATOM    884  C1'  DG A  36      -4.037 -14.489 -11.272  1.00  0.00     0.262 C 
ATOM    885  N9   DG A  36      -5.009 -14.810 -10.231  1.00  0.00    -0.293 N 
ATOM    886  C4   DG A  36      -4.730 -15.182  -8.938  1.00  0.00     0.187 A 
ATOM    887  N3   DG A  36      -3.499 -15.317  -8.399  1.00  0.00    -0.044 NA
ATOM    888  C2   DG A  36      -3.554 -15.687  -7.132  1.00  0.00     0.703 A 
ATOM    889  N2   DG A  36      -2.423 -15.866  -6.442  1.00  0.00    -0.233 N 
ATOM    890  H21  DG A  36      -1.533 -15.717  -6.895  1.00  0.00     0.174 HD
ATOM    891  H22  DG A  36      -2.455 -16.146  -5.472  1.00  0.00     0.174 HD
ATOM    892  N1   DG A  36      -4.721 -15.909  -6.446  1.00  0.00    -0.153 N 
ATOM    893  H1   DG A  36      -4.651 -16.191  -5.480  1.00  0.00     0.187 HD
ATOM    894  C6   DG A  36      -5.998 -15.777  -6.978  1.00  0.00     0.292 A 
ATOM    895  O6   DG A  36      -6.985 -16.003  -6.269  1.00  0.00    -0.265 OA
ATOM    896  C5   DG A  36      -5.957 -15.378  -8.340  1.00  0.00     0.173 A 
ATOM    897  N7   DG A  36      -6.988 -15.134  -9.239  1.00  0.00    -0.234 NA
ATOM    898  C8   DG A  36      -6.378 -14.802 -10.344  1.00  0.00     0.214 A 
ATOM    899  C2'  DG A  36      -3.473 -15.721 -11.985  1.00  0.00     0.199 C 
ATOM    900  O2'  DG A  36      -2.117 -15.479 -12.312  1.00  0.00    -0.388 OA
ATOM    901 'HO2  DG A  36      -1.932 -15.994 -13.097  1.00  0.00     0.210 HD
ATOM    902  C3'  DG A  36      -4.337 -15.767 -13.241  1.00  0.00     0.198 C 
ATOM    903  O3'  DG A  36      -3.695 -16.443 -14.319  1.00  0.00    -0.279 OA
ATOM    904  P    DG A  37      -3.924 -18.022 -14.523  1.00  0.00     0.408 P 
ATOM    905  OP1  DG A  37      -3.230 -18.410 -15.778  1.00  0.00    -0.624 OA
ATOM    906  OP2  DG A  37      -5.372 -18.313 -14.368  1.00  0.00    -0.624 OA
ATOM    907  O5'  DG A  37      -3.144 -18.688 -13.303  1.00  0.00    -0.287 OA
ATOM    908  C5'  DG A  37      -1.728 -18.858 -13.340  1.00  0.00     0.216 C 
ATOM    909  C4'  DG A  37      -1.213 -19.257 -11.975  1.00  0.00     0.180 C 
ATOM    910  O4'  DG A  37      -1.872 -18.454 -10.963  1.00  0.00    -0.353 OA
ATOM    911  C1'  DG A  37      -1.959 -19.193  -9.758  1.00  0.00     0.262 C 
ATOM    912  N9   DG A  37      -3.349 -19.187  -9.308  1.00  0.00    -0.293 N 
ATOM    913  C4   DG A  37      -3.797 -19.486  -8.044  1.00  0.00     0.187 A 
ATOM    914  N3   DG A  37      -3.027 -19.835  -6.993  1.00  0.00    -0.044 NA
ATOM    915  C2   DG A  37      -3.746 -20.063  -5.910  1.00  0.00     0.703 A 
ATOM    916  N2   DG A  37      -3.138 -20.416  -4.778  1.00  0.00    -0.233 N 
ATOM    917  H21  DG A  37      -2.133 -20.503  -4.763  1.00  0.00     0.174 HD
ATOM    918  H22  DG A  37      -3.682 -20.602  -3.946  1.00  0.00     0.174 HD
ATOM    919  N1   DG A  37      -5.112 -19.961  -5.856  1.00  0.00    -0.153 N 
ATOM    920  H1   DG A  37      -5.562 -20.161  -4.976  1.00  0.00     0.187 HD
ATOM    921  C6   DG A  37      -5.928 -19.603  -6.923  1.00  0.00     0.292 A 
ATOM    922  O6   DG A  37      -7.153 -19.541  -6.764  1.00  0.00    -0.265 OA
ATOM    923  C5   DG A  37      -5.168 -19.352  -8.099  1.00  0.00     0.173 A 
ATOM    924  N7   DG A  37      -5.576 -18.974  -9.372  1.00  0.00    -0.234 NA
ATOM    925  C8   DG A  37      -4.465 -18.889 -10.052  1.00  0.00     0.214 A 
ATOM    926  C2'  DG A  37      -1.411 -20.597 -10.023  1.00  0.00     0.199 C 
ATOM    927  O2'  DG A  37      -0.064 -20.639  -9.589  1.00  0.00    -0.388 OA
ATOM    928 'HO2  DG A  37       0.356 -21.347 -10.077  1.00  0.00     0.210 HD
ATOM    929  C3'  DG A  37      -1.506 -20.686 -11.544  1.00  0.00     0.198 C 
ATOM    930  O3'  DG A  37      -0.563 -21.607 -12.088  1.00  0.00    -0.279 OA
ATOM    931  P    DT A  38      -1.078 -22.919 -12.864  1.00  0.00     0.408 P 
ATOM    932  OP1  DT A  38       0.066 -23.866 -12.933  1.00  0.00    -0.624 OA
ATOM    933  OP2  DT A  38      -1.742 -22.481 -14.117  1.00  0.00    -0.624 OA
ATOM    934  O5'  DT A  38      -2.192 -23.531 -11.901  1.00  0.00    -0.287 OA
ATOM    935  C5'  DT A  38      -2.039 -24.826 -11.315  1.00  0.00     0.216 C 
ATOM    936  C4'  DT A  38      -1.421 -24.708  -9.939  1.00  0.00     0.180 C 
ATOM    937  O4'  DT A  38      -1.728 -23.388  -9.404  1.00  0.00    -0.353 OA
ATOM    938  C1'  DT A  38      -2.260 -23.508  -8.099  1.00  0.00     0.264 C 
ATOM    939  N1   DT A  38      -3.706 -23.240  -8.160  1.00  0.00    -0.280 N 
ATOM    940  C6   DT A  38      -4.305 -22.800  -9.320  1.00  0.00     0.104 A 
ATOM    941  C2   DT A  38      -4.451 -23.442  -7.009  1.00  0.00     0.331 A 
ATOM    942  O2   DT A  38      -3.962 -23.831  -5.966  1.00  0.00    -0.246 OA
ATOM    943  N3   DT A  38      -5.791 -23.171  -7.127  1.00  0.00    -0.275 N 
ATOM    944  H3   DT A  38      -6.352 -23.315  -6.302  1.00  0.00     0.173 HD
ATOM    945  C4   DT A  38      -6.451 -22.727  -8.249  1.00  0.00     0.250 A 
ATOM    946  O4   DT A  38      -7.667 -22.543  -8.202  1.00  0.00    -0.268 OA
ATOM    947  C5   DT A  38      -5.616 -22.542  -9.395  1.00  0.00     0.092 A 
ATOM    948  C2'  DT A  38      -1.888 -24.905  -7.606  1.00  0.00     0.199 C 
ATOM    949  O2'  DT A  38      -0.573 -24.867  -7.083  1.00  0.00    -0.388 OA
ATOM    950 'HO2  DT A  38       0.010 -25.215  -7.760  1.00  0.00     0.210 HD
ATOM    951  C3'  DT A  38      -1.944 -25.701  -8.905  1.00  0.00     0.198 C 
ATOM    952  O3'  DT A  38      -1.139 -26.878  -8.858  1.00  0.00    -0.279 OA
ATOM    953  P    DT A  39      -1.288 -27.900  -7.623  1.00  0.00     0.408 P 
ATOM    954  OP1  DT A  39      -0.159 -27.637  -6.694  1.00  0.00    -0.624 OA
ATOM    955  OP2  DT A  39      -2.685 -27.807  -7.127  1.00  0.00    -0.624 OA
ATOM    956  O5'  DT A  39      -1.055 -29.338  -8.272  1.00  0.00    -0.287 OA
ATOM    957  C5'  DT A  39      -2.111 -30.032  -8.935  1.00  0.00     0.216 C 
ATOM    958  C4'  DT A  39      -2.795 -30.981  -7.976  1.00  0.00     0.180 C 
ATOM    959  O4'  DT A  39      -3.472 -30.195  -6.955  1.00  0.00    -0.353 OA
ATOM    960  C1'  DT A  39      -4.789 -30.677  -6.766  1.00  0.00     0.264 C 
ATOM    961  N1   DT A  39      -5.730 -29.678  -7.296  1.00  0.00    -0.280 N 
ATOM    962  C6   DT A  39      -5.554 -29.118  -8.544  1.00  0.00     0.104 A 
ATOM    963  C2   DT A  39      -6.797 -29.313  -6.498  1.00  0.00     0.331 A 
ATOM    964  O2   DT A  39      -6.988 -29.785  -5.393  1.00  0.00    -0.246 OA
ATOM    965  N3   DT A  39      -7.633 -28.373  -7.043  1.00  0.00    -0.275 N 
ATOM    966  H3   DT A  39      -8.410 -28.088  -6.470  1.00  0.00     0.173 HD
ATOM    967  C4   DT A  39      -7.515 -27.772  -8.277  1.00  0.00     0.250 A 
ATOM    968  O4   DT A  39      -8.348 -26.938  -8.626  1.00  0.00    -0.268 OA
ATOM    969  C5   DT A  39      -6.390 -28.200  -9.041  1.00  0.00     0.092 A 
ATOM    970  C2'  DT A  39      -4.877 -32.036  -7.455  1.00  0.00     0.199 C 
ATOM    971  O2'  DT A  39      -4.450 -33.031  -6.543  1.00  0.00    -0.388 OA
ATOM    972 'HO2  DT A  39      -3.630 -33.391  -6.882  1.00  0.00     0.210 HD
ATOM    973  C3'  DT A  39      -3.877 -31.863  -8.593  1.00  0.00     0.198 C 
ATOM    974  O3'  DT A  39      -3.345 -33.110  -9.033  1.00  0.00    -0.279 OA
ATOM    975  P    DG A  40      -4.301 -34.165  -9.783  1.00  0.00     0.408 P 
ATOM    976  OP1  DG A  40      -5.137 -33.402 -10.739  1.00  0.00    -0.624 OA
ATOM    977  OP2  DG A  40      -4.954 -35.013  -8.754  1.00  0.00    -0.624 OA
ATOM    978  O5'  DG A  40      -3.292 -35.069 -10.622  1.00  0.00    -0.287 OA
ATOM    979  C5'  DG A  40      -2.616 -36.172 -10.019  1.00  0.00     0.216 C 
ATOM    980  C4'  DG A  40      -2.430 -37.281 -11.026  1.00  0.00     0.180 C 
ATOM    981  O4'  DG A  40      -1.042 -37.295 -11.457  1.00  0.00    -0.353 OA
ATOM    982  C1'  DG A  40      -0.593 -38.633 -11.585  1.00  0.00     0.262 C 
ATOM    983  N9   DG A  40       0.465 -38.855 -10.605  1.00  0.00    -0.293 N 
ATOM    984  C4   DG A  40       1.671 -39.478 -10.824  1.00  0.00     0.187 A 
ATOM    985  N3   DG A  40       2.093 -40.000 -11.995  1.00  0.00    -0.044 NA
ATOM    986  C2   DG A  40       3.298 -40.532 -11.892  1.00  0.00     0.703 A 
ATOM    987  N2   DG A  40       3.870 -41.092 -12.962  1.00  0.00    -0.233 N 
ATOM    988  H21  DG A  40       3.368 -41.099 -13.838  1.00  0.00     0.174 HD
ATOM    989  H22  DG A  40       4.788 -41.506 -12.895  1.00  0.00     0.174 HD
ATOM    990  N1   DG A  40       4.033 -40.554 -10.735  1.00  0.00    -0.153 N 
ATOM    991  H1   DG A  40       4.943 -40.985 -10.761  1.00  0.00     0.187 HD
ATOM    992  C6   DG A  40       3.621 -40.024  -9.518  1.00  0.00     0.292 A 
ATOM    993  O6   DG A  40       4.366 -40.099  -8.534  1.00  0.00    -0.265 OA
ATOM    994  C5   DG A  40       2.325 -39.447  -9.611  1.00  0.00     0.173 A 
ATOM    995  N7   DG A  40       1.548 -38.817  -8.647  1.00  0.00    -0.234 NA
ATOM    996  C8   DG A  40       0.458 -38.485  -9.282  1.00  0.00     0.214 A 
ATOM    997  C2'  DG A  40      -1.806 -39.545 -11.398  1.00  0.00     0.199 C 
ATOM    998  O2'  DG A  40      -2.417 -39.757 -12.658  1.00  0.00    -0.388 OA
ATOM    999 'HO2  DG A  40      -3.290 -39.366 -12.609  1.00  0.00     0.210 HD
ATOM   1000  C3'  DG A  40      -2.687 -38.687 -10.498  1.00  0.00     0.198 C 
ATOM   1001  O3'  DG A  40      -4.067 -39.034 -10.595  1.00  0.00    -0.279 OA
ATOM   1002  P    DC A  41      -4.799 -39.768  -9.364  1.00  0.00     0.408 P 
ATOM   1003  OP1  DC A  41      -4.092 -39.390  -8.113  1.00  0.00    -0.624 OA
ATOM   1004  OP2  DC A  41      -4.958 -41.203  -9.709  1.00  0.00    -0.624 OA
ATOM   1005  O5'  DC A  41      -6.247 -39.103  -9.326  1.00  0.00    -0.287 OA
ATOM   1006  C5'  DC A  41      -6.425 -37.748  -8.916  1.00  0.00     0.216 C 
ATOM   1007  C4'  DC A  41      -7.891 -37.380  -8.956  1.00  0.00     0.180 C 
ATOM   1008  O4'  DC A  41      -8.640 -38.361  -8.188  1.00  0.00    -0.353 OA
ATOM   1009  C1'  DC A  41      -9.140 -37.767  -7.004  1.00  0.00     0.264 C 
ATOM   1010  N1   DC A  41      -8.849 -38.670  -5.878  1.00  0.00    -0.278 N 
ATOM   1011  C6   DC A  41      -7.702 -39.413  -5.858  1.00  0.00     0.102 A 
ATOM   1012  C2   DC A  41      -9.766 -38.759  -4.826  1.00  0.00     0.352 A 
ATOM   1013  O2   DC A  41     -10.797 -38.072  -4.868  1.00  0.00    -0.244 OA
ATOM   1014  N3   DC A  41      -9.505 -39.587  -3.791  1.00  0.00    -0.177 NA
ATOM   1015  C4   DC A  41      -8.383 -40.308  -3.781  1.00  0.00     0.128 A 
ATOM   1016  N4   DC A  41      -8.169 -41.110  -2.739  1.00  0.00    -0.384 N 
ATOM   1017  H41  DC A  41      -7.331 -41.670  -2.694  1.00  0.00     0.157 HD
ATOM   1018  H42  DC A  41      -8.852 -41.150  -1.996  1.00  0.00     0.157 HD
ATOM   1019  C5   DC A  41      -7.430 -40.237  -4.838  1.00  0.00     0.067 A 
ATOM   1020  C2'  DC A  41      -8.492 -36.389  -6.872  1.00  0.00     0.199 C 
ATOM   1021  O2'  DC A  41      -9.425 -35.500  -6.285  1.00  0.00    -0.388 OA
ATOM   1022 'HO2  DC A  41     -10.282 -35.700  -6.665  1.00  0.00     0.210 HD
ATOM   1023  C3'  DC A  41      -8.240 -36.033  -8.332  1.00  0.00     0.198 C 
ATOM   1024  O3'  DC A  41      -9.383 -35.447  -8.951  1.00  0.00    -0.279 OA
ATOM   1025  P    DC A  42      -9.206 -34.548 -10.273  1.00  0.00     0.408 P 
ATOM   1026  OP1  DC A  42     -10.251 -34.983 -11.237  1.00  0.00    -0.624 OA
ATOM   1027  OP2  DC A  42      -7.778 -34.574 -10.678  1.00  0.00    -0.624 OA
ATOM   1028  O5'  DC A  42      -9.562 -33.073  -9.783  1.00  0.00    -0.287 OA
ATOM   1029  C5'  DC A  42     -10.123 -32.114 -10.679  1.00  0.00     0.216 C 
ATOM   1030  C4'  DC A  42      -9.498 -30.757 -10.449  1.00  0.00     0.180 C 
ATOM   1031  O4'  DC A  42      -8.051 -30.898 -10.491  1.00  0.00    -0.353 OA
ATOM   1032  C1'  DC A  42      -7.540 -30.273 -11.653  1.00  0.00     0.264 C 
ATOM   1033  N1   DC A  42      -6.576 -31.192 -12.284  1.00  0.00    -0.278 N 
ATOM   1034  C6   DC A  42      -5.233 -30.949 -12.208  1.00  0.00     0.102 A 
ATOM   1035  C2   DC A  42      -7.052 -32.322 -12.964  1.00  0.00     0.352 A 
ATOM   1036  O2   DC A  42      -8.274 -32.521 -13.022  1.00  0.00    -0.244 OA
ATOM   1037  N3   DC A  42      -6.167 -33.167 -13.539  1.00  0.00    -0.177 NA
ATOM   1038  C4   DC A  42      -4.859 -32.922 -13.455  1.00  0.00     0.128 A 
ATOM   1039  N4   DC A  42      -4.028 -33.789 -14.030  1.00  0.00    -0.384 N 
ATOM   1040  H41  DC A  42      -3.031 -33.642 -13.987  1.00  0.00     0.157 HD
ATOM   1041  H42  DC A  42      -4.403 -34.598 -14.504  1.00  0.00     0.157 HD
ATOM   1042  C5   DC A  42      -4.347 -31.779 -12.774  1.00  0.00     0.067 A 
ATOM   1043  C2'  DC A  42      -8.730 -29.905 -12.539  1.00  0.00     0.199 C 
ATOM   1044  O2'  DC A  42      -8.433 -28.694 -13.209  1.00  0.00    -0.388 OA
ATOM   1045 'HO2  DC A  42      -8.892 -28.000 -12.736  1.00  0.00     0.210 HD
ATOM   1046  C3'  DC A  42      -9.827 -29.703 -11.500  1.00  0.00     0.198 C 
ATOM   1047  O3'  DC A  42      -9.813 -28.388 -10.946  1.00  0.00    -0.279 OA
ATOM   1048  P    DG A  43     -11.184 -27.722 -10.426  1.00  0.00     0.408 P 
ATOM   1049  OP1  DG A  43     -12.237 -28.031 -11.426  1.00  0.00    -0.624 OA
ATOM   1050  OP2  DG A  43     -10.902 -26.307 -10.072  1.00  0.00    -0.624 OA
ATOM   1051  O5'  DG A  43     -11.515 -28.519  -9.086  1.00  0.00    -0.287 OA
ATOM   1052  C5'  DG A  43     -12.183 -27.884  -7.994  1.00  0.00     0.216 C 
ATOM   1053  C4'  DG A  43     -13.672 -27.824  -8.251  1.00  0.00     0.180 C 
ATOM   1054  O4'  DG A  43     -14.104 -29.099  -8.805  1.00  0.00    -0.353 OA
ATOM   1055  C1'  DG A  43     -14.904 -29.786  -7.860  1.00  0.00     0.262 C 
ATOM   1056  N9   DG A  43     -14.471 -31.180  -7.824  1.00  0.00    -0.293 N 
ATOM   1057  C4   DG A  43     -13.190 -31.640  -7.628  1.00  0.00     0.187 A 
ATOM   1058  N3   DG A  43     -12.094 -30.879  -7.427  1.00  0.00    -0.044 NA
ATOM   1059  C2   DG A  43     -11.006 -31.611  -7.275  1.00  0.00     0.703 A 
ATOM   1060  N2   DG A  43      -9.829 -31.014  -7.068  1.00  0.00    -0.233 N 
ATOM   1061  H21  DG A  43      -9.789 -30.006  -7.032  1.00  0.00     0.174 HD
ATOM   1062  H22  DG A  43      -8.991 -31.564  -6.957  1.00  0.00     0.174 HD
ATOM   1063  N1   DG A  43     -10.990 -32.982  -7.314  1.00  0.00    -0.153 N 
ATOM   1064  H1   DG A  43     -10.104 -33.448  -7.187  1.00  0.00     0.187 HD
ATOM   1065  C6   DG A  43     -12.104 -33.788  -7.517  1.00  0.00     0.292 A 
ATOM   1066  O6   DG A  43     -11.978 -35.017  -7.533  1.00  0.00    -0.265 OA
ATOM   1067  C5   DG A  43     -13.283 -33.015  -7.685  1.00  0.00     0.173 A 
ATOM   1068  N7   DG A  43     -14.595 -33.412  -7.909  1.00  0.00    -0.234 NA
ATOM   1069  C8   DG A  43     -15.261 -32.292  -7.983  1.00  0.00     0.214 A 
ATOM   1070  C2'  DG A  43     -14.760 -29.050  -6.530  1.00  0.00     0.199 C 
ATOM   1071  O2'  DG A  43     -15.974 -29.164  -5.809  1.00  0.00    -0.388 OA
ATOM   1072 'HO2  DG A  43     -15.976 -28.466  -5.150  1.00  0.00     0.210 HD
ATOM   1073  C3'  DG A  43     -14.537 -27.623  -7.012  1.00  0.00     0.198 C 
ATOM   1074  O3'  DG A  43     -15.760 -26.962  -7.335  1.00  0.00    -0.279 OA
ATOM   1075  P    DA A  44     -16.305 -25.776  -6.394  1.00  0.00     0.408 P 
ATOM   1076  OP1  DA A  44     -17.735 -25.566  -6.736  1.00  0.00    -0.624 OA
ATOM   1077  OP2  DA A  44     -15.356 -24.637  -6.482  1.00  0.00    -0.624 OA
ATOM   1078  O5'  DA A  44     -16.232 -26.378  -4.920  1.00  0.00    -0.287 OA
ATOM   1079  C5'  DA A  44     -16.795 -25.680  -3.807  1.00  0.00     0.216 C 
ATOM   1080  C4'  DA A  44     -16.180 -26.169  -2.513  1.00  0.00     0.180 C 
ATOM   1081  O4'  DA A  44     -15.321 -27.309  -2.809  1.00  0.00    -0.353 OA
ATOM   1082  C1'  DA A  44     -14.015 -27.054  -2.337  1.00  0.00     0.262 C 
ATOM   1083  N9   DA A  44     -13.199 -26.603  -3.464  1.00  0.00    -0.294 N 
ATOM   1084  C4   DA A  44     -12.006 -27.139  -3.887  1.00  0.00     0.167 A 
ATOM   1085  N3   DA A  44     -11.341 -28.180  -3.355  1.00  0.00    -0.222 NA
ATOM   1086  C2   DA A  44     -10.222 -28.420  -4.036  1.00  0.00     0.237 A 
ATOM   1087  N1   DA A  44      -9.728 -27.782  -5.106  1.00  0.00    -0.222 NA
ATOM   1088  C6   DA A  44     -10.419 -26.737  -5.610  1.00  0.00     0.155 A 
ATOM   1089  N6   DA A  44      -9.927 -26.094  -6.668  1.00  0.00    -0.382 N 
ATOM   1090  H61  DA A  44     -10.433 -25.310  -7.052  1.00  0.00     0.157 HD
ATOM   1091  H62  DA A  44      -9.064 -26.392  -7.099  1.00  0.00     0.157 HD
ATOM   1092  C5   DA A  44     -11.623 -26.386  -4.982  1.00  0.00     0.149 A 
ATOM   1093  N7   DA A  44     -12.554 -25.392  -5.245  1.00  0.00    -0.236 NA
ATOM   1094  C8   DA A  44     -13.465 -25.562  -4.319  1.00  0.00     0.214 A 
ATOM   1095  C2'  DA A  44     -14.169 -26.023  -1.226  1.00  0.00     0.199 C 
ATOM   1096  O2'  DA A  44     -14.581 -26.681  -0.043  1.00  0.00    -0.388 OA
ATOM   1097 'HO2  DA A  44     -15.200 -26.095   0.394  1.00  0.00     0.210 HD
ATOM   1098  C3'  DA A  44     -15.288 -25.157  -1.793  1.00  0.00     0.198 C 
ATOM   1099  O3'  DA A  44     -15.995 -24.462  -0.769  1.00  0.00    -0.279 OA
ATOM   1100  P    DA A  45     -15.542 -22.976  -0.353  1.00  0.00     0.408 P 
ATOM   1101  OP1  DA A  45     -16.263 -22.629   0.899  1.00  0.00    -0.624 OA
ATOM   1102  OP2  DA A  45     -15.677 -22.099  -1.543  1.00  0.00    -0.624 OA
ATOM   1103  O5'  DA A  45     -13.991 -23.120  -0.012  1.00  0.00    -0.287 OA
ATOM   1104  C5'  DA A  45     -13.557 -23.755   1.190  1.00  0.00     0.216 C 
ATOM   1105  C4'  DA A  45     -12.116 -24.196   1.062  1.00  0.00     0.180 C 
ATOM   1106  O4'  DA A  45     -11.917 -24.831  -0.228  1.00  0.00    -0.353 OA
ATOM   1107  C1'  DA A  45     -10.584 -24.619  -0.661  1.00  0.00     0.262 C 
ATOM   1108  N9   DA A  45     -10.622 -24.034  -2.002  1.00  0.00    -0.294 N 
ATOM   1109  C4   DA A  45      -9.570 -23.928  -2.882  1.00  0.00     0.167 A 
ATOM   1110  N3   DA A  45      -8.301 -24.329  -2.690  1.00  0.00    -0.222 NA
ATOM   1111  C2   DA A  45      -7.556 -24.068  -3.764  1.00  0.00     0.237 A 
ATOM   1112  N1   DA A  45      -7.910 -23.494  -4.923  1.00  0.00    -0.222 NA
ATOM   1113  C6   DA A  45      -9.193 -23.103  -5.083  1.00  0.00     0.155 A 
ATOM   1114  N6   DA A  45      -9.546 -22.533  -6.236  1.00  0.00    -0.382 N 
ATOM   1115  H61  DA A  45     -10.499 -22.232  -6.378  1.00  0.00     0.157 HD
ATOM   1116  H62  DA A  45      -8.864 -22.406  -6.971  1.00  0.00     0.157 HD
ATOM   1117  C5   DA A  45     -10.084 -23.324  -4.015  1.00  0.00     0.149 A 
ATOM   1118  N7   DA A  45     -11.435 -23.048  -3.853  1.00  0.00    -0.236 NA
ATOM   1119  C8   DA A  45     -11.704 -23.486  -2.646  1.00  0.00     0.214 A 
ATOM   1120  C2'  DA A  45      -9.888 -23.740   0.382  1.00  0.00     0.199 C 
ATOM   1121  O2'  DA A  45      -9.179 -24.581   1.272  1.00  0.00    -0.388 OA
ATOM   1122 'HO2  DA A  45      -9.484 -24.373   2.156  1.00  0.00     0.210 HD
ATOM   1123  C3'  DA A  45     -11.078 -23.085   1.076  1.00  0.00     0.198 C 
ATOM   1124  O3'  DA A  45     -10.774 -22.671   2.406  1.00  0.00    -0.279 OA
ATOM   1125  P    DC A  46     -10.134 -21.218   2.666  1.00  0.00     0.408 P 
ATOM   1126  OP1  DC A  46      -9.970 -21.062   4.134  1.00  0.00    -0.624 OA
ATOM   1127  OP2  DC A  46     -10.921 -20.215   1.905  1.00  0.00    -0.624 OA
ATOM   1128  O5'  DC A  46      -8.685 -21.312   2.010  1.00  0.00    -0.287 OA
ATOM   1129  C5'  DC A  46      -7.706 -22.219   2.516  1.00  0.00     0.216 C 
ATOM   1130  C4'  DC A  46      -6.383 -21.998   1.821  1.00  0.00     0.180 C 
ATOM   1131  O4'  DC A  46      -6.456 -22.551   0.480  1.00  0.00    -0.353 OA
ATOM   1132  C1'  DC A  46      -5.718 -21.737  -0.413  1.00  0.00     0.264 C 
ATOM   1133  N1   DC A  46      -6.631 -21.248  -1.459  1.00  0.00    -0.278 N 
ATOM   1134  C6   DC A  46      -7.962 -21.072  -1.203  1.00  0.00     0.102 A 
ATOM   1135  C2   DC A  46      -6.114 -20.967  -2.725  1.00  0.00     0.352 A 
ATOM   1136  O2   DC A  46      -4.904 -21.133  -2.929  1.00  0.00    -0.244 OA
ATOM   1137  N3   DC A  46      -6.943 -20.522  -3.695  1.00  0.00    -0.177 NA
ATOM   1138  C4   DC A  46      -8.241 -20.358  -3.437  1.00  0.00     0.128 A 
ATOM   1139  N4   DC A  46      -9.020 -19.921  -4.425  1.00  0.00    -0.384 N 
ATOM   1140  H41  DC A  46     -10.008 -19.785  -4.267  1.00  0.00     0.157 HD
ATOM   1141  H42  DC A  46      -8.620 -19.726  -5.333  1.00  0.00     0.157 HD
ATOM   1142  C5   DC A  46      -8.797 -20.636  -2.155  1.00  0.00     0.067 A 
ATOM   1143  C2'  DC A  46      -5.065 -20.619   0.402  1.00  0.00     0.199 C 
ATOM   1144  O2'  DC A  46      -3.765 -21.037   0.775  1.00  0.00    -0.388 OA
ATOM   1145 'HO2  DC A  46      -3.201 -20.263   0.745  1.00  0.00     0.210 HD
ATOM   1146  C3'  DC A  46      -5.995 -20.542   1.607  1.00  0.00     0.198 C 
ATOM   1147  O3'  DC A  46      -5.355 -19.998   2.758  1.00  0.00    -0.279 OA
ATOM   1148  P    DC A  47      -5.313 -18.405   2.972  1.00  0.00     0.408 P 
ATOM   1149  OP1  DC A  47      -4.821 -18.155   4.351  1.00  0.00    -0.624 OA
ATOM   1150  OP2  DC A  47      -6.616 -17.836   2.544  1.00  0.00    -0.624 OA
ATOM   1151  O5'  DC A  47      -4.198 -17.908   1.947  1.00  0.00    -0.287 OA
ATOM   1152  C5'  DC A  47      -2.810 -18.098   2.222  1.00  0.00     0.216 C 
ATOM   1153  C4'  DC A  47      -1.975 -17.589   1.070  1.00  0.00     0.180 C 
ATOM   1154  O4'  DC A  47      -2.393 -18.257  -0.151  1.00  0.00    -0.353 OA
ATOM   1155  C1'  DC A  47      -2.327 -17.350  -1.238  1.00  0.00     0.264 C 
ATOM   1156  N1   DC A  47      -3.679 -17.200  -1.801  1.00  0.00    -0.278 N 
ATOM   1157  C6   DC A  47      -4.787 -17.381  -1.021  1.00  0.00     0.102 A 
ATOM   1158  C2   DC A  47      -3.816 -16.869  -3.153  1.00  0.00     0.352 A 
ATOM   1159  O2   DC A  47      -2.796 -16.709  -3.839  1.00  0.00    -0.244 OA
ATOM   1160  N3   DC A  47      -5.053 -16.730  -3.677  1.00  0.00    -0.177 NA
ATOM   1161  C4   DC A  47      -6.127 -16.910  -2.907  1.00  0.00     0.128 A 
ATOM   1162  N4   DC A  47      -7.326 -16.765  -3.469  1.00  0.00    -0.384 N 
ATOM   1163  H41  DC A  47      -8.164 -16.893  -2.921  1.00  0.00     0.157 HD
ATOM   1164  H42  DC A  47      -7.395 -16.524  -4.448  1.00  0.00     0.157 HD
ATOM   1165  C5   DC A  47      -6.019 -17.248  -1.527  1.00  0.00     0.067 A 
ATOM   1166  C2'  DC A  47      -1.733 -16.042  -0.716  1.00  0.00     0.199 C 
ATOM   1167  O2'  DC A  47      -0.328 -16.089  -0.883  1.00  0.00    -0.388 OA
ATOM   1168 'HO2  DC A  47       0.027 -15.296  -0.481  1.00  0.00     0.210 HD
ATOM   1169  C3'  DC A  47      -2.122 -16.107   0.757  1.00  0.00     0.198 C 
ATOM   1170  O3'  DC A  47      -1.276 -15.309   1.581  1.00  0.00    -0.279 OA
ATOM   1171  P    DT A  48      -1.752 -13.839   2.030  1.00  0.00     0.408 P 
ATOM   1172  OP1  DT A  48      -0.852 -13.400   3.127  1.00  0.00    -0.624 OA
ATOM   1173  OP2  DT A  48      -3.220 -13.868   2.253  1.00  0.00    -0.624 OA
ATOM   1174  O5'  DT A  48      -1.460 -12.932   0.752  1.00  0.00    -0.287 OA
ATOM   1175  C5'  DT A  48      -0.138 -12.801   0.230  1.00  0.00     0.216 C 
ATOM   1176  C4'  DT A  48      -0.189 -12.411  -1.229  1.00  0.00     0.180 C 
ATOM   1177  O4'  DT A  48      -1.224 -13.169  -1.895  1.00  0.00    -0.353 OA
ATOM   1178  C1'  DT A  48      -1.677 -12.444  -3.022  1.00  0.00     0.264 C 
ATOM   1179  N1   DT A  48      -3.145 -12.513  -3.057  1.00  0.00    -0.280 N 
ATOM   1180  C6   DT A  48      -3.871 -12.866  -1.942  1.00  0.00     0.104 A 
ATOM   1181  C2   DT A  48      -3.776 -12.209  -4.250  1.00  0.00     0.331 A 
ATOM   1182  O2   DT A  48      -3.171 -11.896  -5.260  1.00  0.00    -0.246 OA
ATOM   1183  N3   DT A  48      -5.144 -12.284  -4.218  1.00  0.00    -0.275 N 
ATOM   1184  H3   DT A  48      -5.628 -12.061  -5.076  1.00  0.00     0.173 HD
ATOM   1185  C4   DT A  48      -5.931 -12.628  -3.144  1.00  0.00     0.250 A 
ATOM   1186  O4   DT A  48      -7.154 -12.657  -3.276  1.00  0.00    -0.268 OA
ATOM   1187  C5   DT A  48      -5.206 -12.931  -1.949  1.00  0.00     0.092 A 
ATOM   1188  C2'  DT A  48      -1.132 -11.014  -2.928  1.00  0.00     0.199 C 
ATOM   1189  O2'  DT A  48      -0.105 -10.870  -3.888  1.00  0.00    -0.388 OA
ATOM   1190 'HO2  DT A  48       0.733 -10.924  -3.423  1.00  0.00     0.210 HD
ATOM   1191  C3'  DT A  48      -0.569 -10.965  -1.506  1.00  0.00     0.198 C 
ATOM   1192  O3'  DT A  48       0.570 -10.114  -1.400  1.00  0.00    -0.279 OA
ATOM   1193  P    DC A  49       0.373  -8.530  -1.192  1.00  0.00     0.408 P 
ATOM   1194  OP1  DC A  49       1.546  -8.042  -0.424  1.00  0.00    -0.624 OA
ATOM   1195  OP2  DC A  49      -0.997  -8.284  -0.673  1.00  0.00    -0.624 OA
ATOM   1196  O5'  DC A  49       0.461  -7.932  -2.667  1.00  0.00    -0.287 OA
ATOM   1197  C5'  DC A  49       1.576  -8.216  -3.511  1.00  0.00     0.216 C 
ATOM   1198  C4'  DC A  49       1.324  -7.682  -4.901  1.00  0.00     0.180 C 
ATOM   1199  O4'  DC A  49       2.305  -8.269  -5.803  1.00  0.00    -0.353 OA
ATOM   1200  C1'  DC A  49       1.644  -8.976  -6.831  1.00  0.00     0.264 C 
ATOM   1201  N1   DC A  49       2.431 -10.179  -7.152  1.00  0.00    -0.278 N 
ATOM   1202  C6   DC A  49       2.868 -10.406  -8.427  1.00  0.00     0.102 A 
ATOM   1203  C2   DC A  49       2.727 -11.092  -6.132  1.00  0.00     0.352 A 
ATOM   1204  O2   DC A  49       2.328 -10.862  -4.982  1.00  0.00    -0.244 OA
ATOM   1205  N3   DC A  49       3.443 -12.202  -6.426  1.00  0.00    -0.177 NA
ATOM   1206  C4   DC A  49       3.861 -12.414  -7.674  1.00  0.00     0.128 A 
ATOM   1207  N4   DC A  49       4.562 -13.522  -7.914  1.00  0.00    -0.384 N 
ATOM   1208  H41  DC A  49       4.897 -13.721  -8.844  1.00  0.00     0.157 HD
ATOM   1209  H42  DC A  49       4.755 -14.160  -7.156  1.00  0.00     0.157 HD
ATOM   1210  C5   DC A  49       3.579 -11.500  -8.731  1.00  0.00     0.067 A 
ATOM   1211  C2'  DC A  49       0.234  -9.269  -6.326  1.00  0.00     0.199 C 
ATOM   1212  O2'  DC A  49      -0.637  -9.340  -7.439  1.00  0.00    -0.388 OA
ATOM   1213 'HO2  DC A  49      -1.234  -8.595  -7.365  1.00  0.00     0.210 HD
ATOM   1214  C3'  DC A  49      -0.044  -8.027  -5.486  1.00  0.00     0.198 C 
ATOM   1215  O3'  DC A  49      -0.562  -6.951  -6.267  1.00  0.00    -0.279 OA
ATOM   1216  P    DT A  50      -1.406  -5.780  -5.556  1.00  0.00     0.408 P 
ATOM   1217  OP1  DT A  50      -1.407  -4.615  -6.477  1.00  0.00    -0.624 OA
ATOM   1218  OP2  DT A  50      -0.917  -5.611  -4.164  1.00  0.00    -0.624 OA
ATOM   1219  O5'  DT A  50      -2.891  -6.356  -5.493  1.00  0.00    -0.287 OA
ATOM   1220  C5'  DT A  50      -3.531  -6.881  -6.658  1.00  0.00     0.216 C 
ATOM   1221  C4'  DT A  50      -4.870  -6.207  -6.867  1.00  0.00     0.180 C 
ATOM   1222  O4'  DT A  50      -5.745  -6.557  -5.758  1.00  0.00    -0.353 OA
ATOM   1223  C1'  DT A  50      -6.069  -5.395  -5.017  1.00  0.00     0.264 C 
ATOM   1224  N1   DT A  50      -6.025  -5.731  -3.587  1.00  0.00    -0.280 N 
ATOM   1225  C6   DT A  50      -4.953  -6.403  -3.046  1.00  0.00     0.104 A 
ATOM   1226  C2   DT A  50      -7.099  -5.350  -2.802  1.00  0.00     0.331 A 
ATOM   1227  O2   DT A  50      -8.065  -4.755  -3.245  1.00  0.00    -0.246 OA
ATOM   1228  N3   DT A  50      -6.998  -5.692  -1.478  1.00  0.00    -0.275 N 
ATOM   1229  H3   DT A  50      -7.765  -5.423  -0.881  1.00  0.00     0.173 HD
ATOM   1230  C4   DT A  50      -5.959  -6.361  -0.871  1.00  0.00     0.250 A 
ATOM   1231  O4   DT A  50      -6.017  -6.601   0.334  1.00  0.00    -0.268 OA
ATOM   1232  C5   DT A  50      -4.889  -6.720  -1.749  1.00  0.00     0.092 A 
ATOM   1233  C2'  DT A  50      -5.075  -4.314  -5.433  1.00  0.00     0.199 C 
ATOM   1234  O2'  DT A  50      -5.703  -3.051  -5.320  1.00  0.00    -0.388 OA
ATOM   1235 'HO2  DT A  50      -5.909  -2.766  -6.211  1.00  0.00     0.210 HD
ATOM   1236  C3'  DT A  50      -4.838  -4.682  -6.892  1.00  0.00     0.198 C 
ATOM   1237  O3'  DT A  50      -5.847  -4.153  -7.748  1.00  0.00    -0.279 OA
ATOM   1238  P    DT A  51      -5.545  -3.952  -9.315  1.00  0.00     0.408 P 
ATOM   1239  OP1  DT A  51      -4.566  -4.991  -9.723  1.00  0.00    -0.624 OA
ATOM   1240  OP2  DT A  51      -5.233  -2.518  -9.545  1.00  0.00    -0.624 OA
ATOM   1241  O5'  DT A  51      -6.937  -4.285 -10.015  1.00  0.00    -0.287 OA
ATOM   1242  C5'  DT A  51      -7.253  -3.771 -11.308  1.00  0.00     0.216 C 
ATOM   1243  C4'  DT A  51      -8.751  -3.698 -11.484  1.00  0.00     0.180 C 
ATOM   1244  O4'  DT A  51      -9.290  -5.051 -11.470  1.00  0.00    -0.353 OA
ATOM   1245  C1'  DT A  51     -10.461  -5.091 -10.675  1.00  0.00     0.264 C 
ATOM   1246  N1   DT A  51     -10.172  -5.854  -9.452  1.00  0.00    -0.280 N 
ATOM   1247  C6   DT A  51      -8.922  -6.381  -9.216  1.00  0.00     0.104 A 
ATOM   1248  C2   DT A  51     -11.200  -6.026  -8.542  1.00  0.00     0.331 A 
ATOM   1249  O2   DT A  51     -12.316  -5.570  -8.708  1.00  0.00    -0.246 OA
ATOM   1250  N3   DT A  51     -10.871  -6.749  -7.426  1.00  0.00    -0.275 N 
ATOM   1251  H3   DT A  51     -11.610  -6.883  -6.752  1.00  0.00     0.173 HD
ATOM   1252  C4   DT A  51      -9.648  -7.302  -7.127  1.00  0.00     0.250 A 
ATOM   1253  O4   DT A  51      -9.515  -7.946  -6.087  1.00  0.00    -0.268 OA
ATOM   1254  C5   DT A  51      -8.637  -7.077  -8.111  1.00  0.00     0.092 A 
ATOM   1255  C2'  DT A  51     -10.867  -3.644 -10.411  1.00  0.00     0.199 C 
ATOM   1256  O2'  DT A  51     -11.648  -3.181 -11.496  1.00  0.00    -0.388 OA
ATOM   1257 'HO2  DT A  51     -12.305  -2.590 -11.128  1.00  0.00     0.210 HD
ATOM   1258  C3'  DT A  51      -9.502  -2.969 -10.377  1.00  0.00     0.198 C 
ATOM   1259  O3'  DT A  51      -9.576  -1.568 -10.623  1.00  0.00    -0.279 OA
ATOM   1260  P    DC A  52      -9.607  -0.540  -9.386  1.00  0.00     0.408 P 
ATOM   1261  OP1  DC A  52      -9.330   0.816  -9.925  1.00  0.00    -0.624 OA
ATOM   1262  OP2  DC A  52      -8.758  -1.083  -8.295  1.00  0.00    -0.624 OA
ATOM   1263  O5'  DC A  52     -11.122  -0.576  -8.891  1.00  0.00    -0.287 OA
ATOM   1264  C5'  DC A  52     -12.170  -0.031  -9.690  1.00  0.00     0.216 C 
ATOM   1265  C4'  DC A  52     -13.515  -0.343  -9.073  1.00  0.00     0.180 C 
ATOM   1266  O4'  DC A  52     -13.675  -1.789  -8.988  1.00  0.00    -0.353 OA
ATOM   1267  C1'  DC A  52     -14.236  -2.136  -7.733  1.00  0.00     0.264 C 
ATOM   1268  N1   DC A  52     -13.205  -2.826  -6.938  1.00  0.00    -0.278 N 
ATOM   1269  C6   DC A  52     -11.884  -2.731  -7.276  1.00  0.00     0.102 A 
ATOM   1270  C2   DC A  52     -13.595  -3.586  -5.830  1.00  0.00     0.352 A 
ATOM   1271  O2   DC A  52     -14.798  -3.653  -5.538  1.00  0.00    -0.244 OA
ATOM   1272  N3   DC A  52     -12.651  -4.227  -5.104  1.00  0.00    -0.177 NA
ATOM   1273  C4   DC A  52     -11.366  -4.133  -5.450  1.00  0.00     0.128 A 
ATOM   1274  N4   DC A  52     -10.472  -4.787  -4.710  1.00  0.00    -0.384 N 
ATOM   1275  H41  DC A  52      -9.488  -4.744  -4.937  1.00  0.00     0.157 HD
ATOM   1276  H42  DC A  52     -10.775  -5.328  -3.913  1.00  0.00     0.157 HD
ATOM   1277  C5   DC A  52     -10.941  -3.364  -6.570  1.00  0.00     0.067 A 
ATOM   1278  C2'  DC A  52     -14.737  -0.839  -7.104  1.00  0.00     0.199 C 
ATOM   1279  O2'  DC A  52     -16.034  -0.562  -7.602  1.00  0.00    -0.388 OA
ATOM   1280 'HO2  DC A  52     -15.929  -0.122  -8.447  1.00  0.00     0.210 HD
ATOM   1281  C3'  DC A  52     -13.712   0.148  -7.644  1.00  0.00     0.198 C 
ATOM   1282  O3'  DC A  52     -14.173   1.497  -7.610  1.00  0.00    -0.279 OA
ATOM   1283  P    DC A  53     -13.661   2.488  -6.450  1.00  0.00     0.408 P 
ATOM   1284  OP1  DC A  53     -14.100   3.859  -6.812  1.00  0.00    -0.624 OA
ATOM   1285  OP2  DC A  53     -12.221   2.219  -6.200  1.00  0.00    -0.624 OA
ATOM   1286  O5'  DC A  53     -14.479   2.030  -5.161  1.00  0.00    -0.287 OA
ATOM   1287  C5'  DC A  53     -15.905   2.070  -5.143  1.00  0.00     0.216 C 
ATOM   1288  C4'  DC A  53     -16.433   1.324  -3.940  1.00  0.00     0.180 C 
ATOM   1289  O4'  DC A  53     -16.117  -0.088  -4.088  1.00  0.00    -0.353 OA
ATOM   1290  C1'  DC A  53     -15.742  -0.629  -2.833  1.00  0.00     0.264 C 
ATOM   1291  N1   DC A  53     -14.336  -1.059  -2.909  1.00  0.00    -0.278 N 
ATOM   1292  C6   DC A  53     -13.506  -0.581  -3.885  1.00  0.00     0.102 A 
ATOM   1293  C2   DC A  53     -13.860  -1.970  -1.965  1.00  0.00     0.352 A 
ATOM   1294  O2   DC A  53     -14.630  -2.384  -1.086  1.00  0.00    -0.244 OA
ATOM   1295  N3   DC A  53     -12.574  -2.378  -2.029  1.00  0.00    -0.177 NA
ATOM   1296  C4   DC A  53     -11.774  -1.912  -2.988  1.00  0.00     0.128 A 
ATOM   1297  N4   DC A  53     -10.515  -2.348  -3.012  1.00  0.00    -0.384 N 
ATOM   1298  H41  DC A  53      -9.871  -2.024  -3.720  1.00  0.00     0.157 HD
ATOM   1299  H42  DC A  53     -10.205  -3.013  -2.318  1.00  0.00     0.157 HD
ATOM   1300  C5   DC A  53     -12.230  -0.980  -3.964  1.00  0.00     0.067 A 
ATOM   1301  C2'  DC A  53     -15.995   0.447  -1.778  1.00  0.00     0.199 C 
ATOM   1302  O2'  DC A  53     -17.324   0.322  -1.309  1.00  0.00    -0.388 OA
ATOM   1303 'HO2  DC A  53     -17.736   1.182  -1.409  1.00  0.00     0.210 HD
ATOM   1304  C3'  DC A  53     -15.816   1.715  -2.603  1.00  0.00     0.198 C 
ATOM   1305  O3'  DC A  53     -16.476   2.838  -2.024  1.00  0.00    -0.279 OA
ATOM   1306  P    DC A  54     -15.696   3.764  -0.964  1.00  0.00     0.408 P 
ATOM   1307  OP1  DC A  54     -16.470   5.023  -0.824  1.00  0.00    -0.624 OA
ATOM   1308  OP2  DC A  54     -14.263   3.823  -1.349  1.00  0.00    -0.624 OA
ATOM   1309  O5'  DC A  54     -15.804   2.958   0.407  1.00  0.00    -0.287 OA
ATOM   1310  C5'  DC A  54     -17.065   2.745   1.039  1.00  0.00     0.216 C 
ATOM   1311  C4'  DC A  54     -16.873   2.039   2.362  1.00  0.00     0.180 C 
ATOM   1312  O4'  DC A  54     -16.433   0.675   2.105  1.00  0.00    -0.353 OA
ATOM   1313  C1'  DC A  54     -15.401   0.326   3.011  1.00  0.00     0.264 C 
ATOM   1314  N1   DC A  54     -14.146   0.182   2.254  1.00  0.00    -0.278 N 
ATOM   1315  C6   DC A  54     -13.991   0.784   1.036  1.00  0.00     0.102 A 
ATOM   1316  C2   DC A  54     -13.113  -0.585   2.797  1.00  0.00     0.352 A 
ATOM   1317  O2   DC A  54     -13.274  -1.112   3.906  1.00  0.00    -0.244 OA
ATOM   1318  N3   DC A  54     -11.963  -0.731   2.102  1.00  0.00    -0.177 NA
ATOM   1319  C4   DC A  54     -11.825  -0.146   0.911  1.00  0.00     0.128 A 
ATOM   1320  N4   DC A  54     -10.676  -0.324   0.260  1.00  0.00    -0.384 N 
ATOM   1321  H41  DC A  54     -10.529   0.101  -0.644  1.00  0.00     0.157 HD
ATOM   1322  H42  DC A  54      -9.950  -0.891   0.676  1.00  0.00     0.157 HD
ATOM   1323  C5   DC A  54     -12.859   0.646   0.335  1.00  0.00     0.067 A 
ATOM   1324  C2'  DC A  54     -15.357   1.417   4.079  1.00  0.00     0.199 C 
ATOM   1325  O2'  DC A  54     -16.296   1.101   5.089  1.00  0.00    -0.388 OA
ATOM   1326 'HO2  DC A  54     -16.831   1.884   5.225  1.00  0.00     0.210 HD
ATOM   1327  C3'  DC A  54     -15.801   2.628   3.270  1.00  0.00     0.198 C 
ATOM   1328  O3'  DC A  54     -16.319   3.671   4.090  1.00  0.00    -0.279 OA
ATOM   1329  P    DC A  55     -15.329   4.798   4.671  1.00  0.00     0.408 P 
ATOM   1330  OP1  DC A  55     -16.165   5.810   5.363  1.00  0.00    -0.624 OA
ATOM   1331  OP2  DC A  55     -14.410   5.224   3.584  1.00  0.00    -0.624 OA
ATOM   1332  O5'  DC A  55     -14.468   4.027   5.769  1.00  0.00    -0.287 OA
ATOM   1333  C5'  DC A  55     -15.088   3.459   6.922  1.00  0.00     0.216 C 
ATOM   1334  C4'  DC A  55     -14.068   2.705   7.744  1.00  0.00     0.180 C 
ATOM   1335  O4'  DC A  55     -13.606   1.555   6.984  1.00  0.00    -0.353 OA
ATOM   1336  C1'  DC A  55     -12.218   1.365   7.200  1.00  0.00     0.264 C 
ATOM   1337  N1   DC A  55     -11.521   1.534   5.913  1.00  0.00    -0.278 N 
ATOM   1338  C6   DC A  55     -12.063   2.298   4.917  1.00  0.00     0.102 A 
ATOM   1339  C2   DC A  55     -10.294   0.895   5.722  1.00  0.00     0.352 A 
ATOM   1340  O2   DC A  55      -9.819   0.215   6.643  1.00  0.00    -0.244 OA
ATOM   1341  N3   DC A  55      -9.653   1.034   4.541  1.00  0.00    -0.177 NA
ATOM   1342  C4   DC A  55     -10.194   1.774   3.573  1.00  0.00     0.128 A 
ATOM   1343  N4   DC A  55      -9.528   1.875   2.423  1.00  0.00    -0.384 N 
ATOM   1344  H41  DC A  55      -9.899   2.424   1.663  1.00  0.00     0.157 HD
ATOM   1345  H42  DC A  55      -8.645   1.394   2.317  1.00  0.00     0.157 HD
ATOM   1346  C5   DC A  55     -11.441   2.441   3.740  1.00  0.00     0.067 A 
ATOM   1347  C2'  DC A  55     -11.779   2.360   8.274  1.00  0.00     0.199 C 
ATOM   1348  O2'  DC A  55     -11.924   1.749   9.543  1.00  0.00    -0.388 OA
ATOM   1349 'HO2  DC A  55     -12.678   2.161   9.966  1.00  0.00     0.210 HD
ATOM   1350  C3'  DC A  55     -12.799   3.475   8.081  1.00  0.00     0.198 C 
ATOM   1351  O3'  DC A  55     -12.964   4.270   9.252  1.00  0.00    -0.279 OA
ATOM   1352  P    DC A  56     -12.035   5.564   9.478  1.00  0.00     0.408 P 
ATOM   1353  OP1  DC A  56     -12.529   6.261  10.692  1.00  0.00    -0.624 OA
ATOM   1354  OP2  DC A  56     -11.936   6.305   8.195  1.00  0.00    -0.624 OA
ATOM   1355  O5'  DC A  56     -10.598   4.956   9.807  1.00  0.00    -0.287 OA
ATOM   1356  C5'  DC A  56     -10.398   4.115  10.943  1.00  0.00     0.216 C 
ATOM   1357  C4'  DC A  56      -8.938   3.747  11.067  1.00  0.00     0.180 C 
ATOM   1358  O4'  DC A  56      -8.634   2.716  10.090  1.00  0.00    -0.353 OA
ATOM   1359  C1'  DC A  56      -7.354   2.948   9.531  1.00  0.00     0.264 C 
ATOM   1360  N1   DC A  56      -7.516   3.198   8.090  1.00  0.00    -0.278 N 
ATOM   1361  C6   DC A  56      -8.619   3.848   7.610  1.00  0.00     0.102 A 
ATOM   1362  C2   DC A  56      -6.520   2.760   7.215  1.00  0.00     0.352 A 
ATOM   1363  O2   DC A  56      -5.530   2.172   7.675  1.00  0.00    -0.244 OA
ATOM   1364  N3   DC A  56      -6.657   2.987   5.891  1.00  0.00    -0.177 NA
ATOM   1365  C4   DC A  56      -7.736   3.620   5.431  1.00  0.00     0.128 A 
ATOM   1366  N4   DC A  56      -7.827   3.820   4.117  1.00  0.00    -0.384 N 
ATOM   1367  H41  DC A  56      -8.626   4.295   3.725  1.00  0.00     0.157 HD
ATOM   1368  H42  DC A  56      -7.085   3.490   3.514  1.00  0.00     0.157 HD
ATOM   1369  C5   DC A  56      -8.770   4.077   6.299  1.00  0.00     0.067 A 
ATOM   1370  C2'  DC A  56      -6.720   4.114  10.289  1.00  0.00     0.198 C 
ATOM   1371  O2'  DC A  56      -5.979   3.597  11.380  1.00  0.00    -0.388 OA
ATOM   1372 'HO2  DC A  56      -6.088   4.210  12.108  1.00  0.00     0.210 HD
ATOM   1373  C3'  DC A  56      -7.954   4.870  10.767  1.00  0.00     0.182 C 
ATOM   1374  O3'  DC A  56      -7.687   5.679  11.917  1.00  0.00    -0.390 OA
ATOM   1375 'HO3  DC A  56      -8.533   5.991  12.248  1.00  0.00     0.210 HD
ENDROOT
TORSDOF 434
