MODEL 1
REMARK VINA RESULT:     -21.9      0.000      0.000
REMARK  0 active torsions:
REMARK  status: ('A' for Active; 'I' for Inactive)
REMARK       I    between atoms: O5'_2  and  C5'_3 
REMARK       I    between atoms: C5'_3  and  C4'_4 
REMARK       I    between atoms: C1'_6  and  N9_7 
REMARK       I    between atoms: C2_10  and  N2_11 
REMARK       I    between atoms: C2'_21  and  O2'_22 
REMARK       I    between atoms: C3'_24  and  O3'_25 
REMARK       I    between atoms: O3'_25  and  P_26 
REMARK       I    between atoms: P_26  and  O5'_29 
REMARK       I    between atoms: O5'_29  and  C5'_30 
REMARK       I    between atoms: C5'_30  and  C4'_31 
REMARK       I    between atoms: C1'_33  and  N9_34 
REMARK       I    between atoms: C2_37  and  N2_38 
REMARK       I    between atoms: C2'_48  and  O2'_49 
REMARK       I    between atoms: C3'_51  and  O3'_52 
REMARK       I    between atoms: O3'_52  and  P_53 
REMARK       I    between atoms: P_53  and  O5'_56 
REMARK       I    between atoms: O5'_56  and  C5'_57 
REMARK       I    between atoms: C5'_57  and  C4'_58 
REMARK       I    between atoms: C1'_60  and  N9_61 
REMARK       I    between atoms: C2_64  and  N2_65 
REMARK       I    between atoms: C2'_75  and  O2'_76 
REMARK       I    between atoms: C3'_78  and  O3'_79 
REMARK       I    between atoms: O3'_79  and  P_80 
REMARK       I    between atoms: P_80  and  O5'_83 
REMARK       I    between atoms: O5'_83  and  C5'_84 
REMARK       I    between atoms: C5'_84  and  C4'_85 
REMARK       I    between atoms: C1'_87  and  N9_88 
REMARK       I    between atoms: C2_91  and  N2_92 
REMARK       I    between atoms: C2'_102  and  O2'_103 
REMARK       I    between atoms: C3'_105  and  O3'_106 
REMARK       I    between atoms: O3'_106  and  P_107 
REMARK       I    between atoms: P_107  and  O5'_110 
REMARK       I    between atoms: O5'_110  and  C5'_111 
REMARK       I    between atoms: C5'_111  and  C4'_112 
REMARK       I    between atoms: C1'_114  and  N9_115 
REMARK       I    between atoms: C2_118  and  N2_119 
REMARK       I    between atoms: C2'_129  and  O2'_130 
REMARK       I    between atoms: C3'_132  and  O3'_133 
REMARK       I    between atoms: O3'_133  and  P_134 
REMARK       I    between atoms: P_134  and  O5'_137 
REMARK       I    between atoms: O5'_137  and  C5'_138 
REMARK       I    between atoms: C5'_138  and  C4'_139 
REMARK       I    between atoms: C1'_141  and  N9_142 
REMARK       I    between atoms: C6_147  and  N6_148 
REMARK       I    between atoms: C2'_154  and  O2'_155 
REMARK       I    between atoms: C3'_157  and  O3'_158 
REMARK       I    between atoms: O3'_158  and  P_159 
REMARK       I    between atoms: P_159  and  O5'_162 
REMARK       I    between atoms: O5'_162  and  C5'_163 
REMARK       I    between atoms: C5'_163  and  C4'_164 
REMARK       I    between atoms: C1'_166  and  N9_167 
REMARK       I    between atoms: C2_170  and  N2_171 
REMARK       I    between atoms: C2'_181  and  O2'_182 
REMARK       I    between atoms: C3'_184  and  O3'_185 
REMARK       I    between atoms: O3'_185  and  P_186 
REMARK       I    between atoms: P_186  and  O5'_189 
REMARK       I    between atoms: O5'_189  and  C5'_190 
REMARK       I    between atoms: C5'_190  and  C4'_191 
REMARK       I    between atoms: C1'_193  and  N1_194 
REMARK       I    between atoms: C2'_203  and  O2'_204 
REMARK       I    between atoms: C3'_206  and  O3'_207 
REMARK       I    between atoms: O3'_207  and  P_208 
REMARK       I    between atoms: P_208  and  O5'_211 
REMARK       I    between atoms: O5'_211  and  C5'_212 
REMARK       I    between atoms: C5'_212  and  C4'_213 
REMARK       I    between atoms: C1'_215  and  N9_216 
REMARK       I    between atoms: C2_219  and  N2_220 
REMARK       I    between atoms: C2'_230  and  O2'_231 
REMARK       I    between atoms: C3'_233  and  O3'_234 
REMARK       I    between atoms: O3'_234  and  P_235 
REMARK       I    between atoms: P_235  and  O5'_238 
REMARK       I    between atoms: O5'_238  and  C5'_239 
REMARK       I    between atoms: C5'_239  and  C4'_240 
REMARK       I    between atoms: C1'_242  and  N9_243 
REMARK       I    between atoms: C2_246  and  N2_247 
REMARK       I    between atoms: C2'_257  and  O2'_258 
REMARK       I    between atoms: C3'_260  and  O3'_261 
REMARK       I    between atoms: O3'_261  and  P_262 
REMARK       I    between atoms: P_262  and  O5'_265 
REMARK       I    between atoms: O5'_265  and  C5'_266 
REMARK       I    between atoms: C5'_266  and  C4'_267 
REMARK       I    between atoms: C1'_269  and  N1_270 
REMARK       I    between atoms: C2'_279  and  O2'_280 
REMARK       I    between atoms: C3'_282  and  O3'_283 
REMARK       I    between atoms: O3'_283  and  P_284 
REMARK       I    between atoms: P_284  and  O5'_287 
REMARK       I    between atoms: O5'_287  and  C5'_288 
REMARK       I    between atoms: C5'_288  and  C4'_289 
REMARK       I    between atoms: C1'_291  and  N9_292 
REMARK       I    between atoms: C2_295  and  N2_296 
REMARK       I    between atoms: C2'_306  and  O2'_307 
REMARK       I    between atoms: C3'_309  and  O3'_310 
REMARK       I    between atoms: O3'_310  and  P_311 
REMARK       I    between atoms: P_311  and  O5'_314 
REMARK       I    between atoms: O5'_314  and  C5'_315 
REMARK       I    between atoms: C5'_315  and  C4'_316 
REMARK       I    between atoms: C1'_318  and  N9_319 
REMARK       I    between atoms: C2_322  and  N2_323 
REMARK       I    between atoms: C2'_333  and  O2'_334 
REMARK       I    between atoms: C3'_336  and  O3'_337 
REMARK       I    between atoms: O3'_337  and  P_338 
REMARK       I    between atoms: P_338  and  O5'_341 
REMARK       I    between atoms: O5'_341  and  C5'_342 
REMARK       I    between atoms: C5'_342  and  C4'_343 
REMARK       I    between atoms: C1'_345  and  N9_346 
REMARK       I    between atoms: C6_351  and  N6_352 
REMARK       I    between atoms: C2'_358  and  O2'_359 
REMARK       I    between atoms: C3'_361  and  O3'_362 
REMARK       I    between atoms: O3'_362  and  P_363 
REMARK       I    between atoms: P_363  and  O5'_366 
REMARK       I    between atoms: O5'_366  and  C5'_367 
REMARK       I    between atoms: C5'_367  and  C4'_368 
REMARK       I    between atoms: C1'_370  and  N9_371 
REMARK       I    between atoms: C6_376  and  N6_377 
REMARK       I    between atoms: C2'_383  and  O2'_384 
REMARK       I    between atoms: C3'_386  and  O3'_387 
REMARK       I    between atoms: O3'_387  and  P_388 
REMARK       I    between atoms: P_388  and  O5'_391 
REMARK       I    between atoms: O5'_391  and  C5'_392 
REMARK       I    between atoms: C5'_392  and  C4'_393 
REMARK       I    between atoms: C1'_395  and  N1_396 
REMARK       I    between atoms: C2'_405  and  O2'_406 
REMARK       I    between atoms: C3'_408  and  O3'_409 
REMARK       I    between atoms: O3'_409  and  P_410 
REMARK       I    between atoms: P_410  and  O5'_413 
REMARK       I    between atoms: O5'_413  and  C5'_414 
REMARK       I    between atoms: C5'_414  and  C4'_415 
REMARK       I    between atoms: C1'_417  and  N9_418 
REMARK       I    between atoms: C2_421  and  N2_422 
REMARK       I    between atoms: C2'_432  and  O2'_433 
REMARK       I    between atoms: C3'_435  and  O3'_436 
REMARK       I    between atoms: O3'_436  and  P_437 
REMARK       I    between atoms: P_437  and  O5'_440 
REMARK       I    between atoms: O5'_440  and  C5'_441 
REMARK       I    between atoms: C5'_441  and  C4'_442 
REMARK       I    between atoms: C1'_444  and  N9_445 
REMARK       I    between atoms: C2_448  and  N2_449 
REMARK       I    between atoms: C2'_459  and  O2'_460 
REMARK       I    between atoms: C3'_462  and  O3'_463 
REMARK       I    between atoms: O3'_463  and  P_464 
REMARK       I    between atoms: P_464  and  O5'_467 
REMARK       I    between atoms: O5'_467  and  C5'_468 
REMARK       I    between atoms: C5'_468  and  C4'_469 
REMARK       I    between atoms: C1'_471  and  N1_472 
REMARK       I    between atoms: C2'_481  and  O2'_482 
REMARK       I    between atoms: C3'_484  and  O3'_485 
REMARK       I    between atoms: O3'_485  and  P_486 
REMARK       I    between atoms: P_486  and  O5'_489 
REMARK       I    between atoms: O5'_489  and  C5'_490 
REMARK       I    between atoms: C5'_490  and  C4'_491 
REMARK       I    between atoms: C1'_493  and  N9_494 
REMARK       I    between atoms: C6_499  and  N6_500 
REMARK       I    between atoms: C2'_506  and  O2'_507 
REMARK       I    between atoms: C3'_509  and  O3'_510 
REMARK       I    between atoms: O3'_510  and  P_511 
REMARK       I    between atoms: P_511  and  O5'_514 
REMARK       I    between atoms: O5'_514  and  C5'_515 
REMARK       I    between atoms: C5'_515  and  C4'_516 
REMARK       I    between atoms: C1'_518  and  N9_519 
REMARK       I    between atoms: C2_522  and  N2_523 
REMARK       I    between atoms: C2'_533  and  O2'_534 
REMARK       I    between atoms: C3'_536  and  O3'_537 
REMARK       I    between atoms: O3'_537  and  P_538 
REMARK       I    between atoms: P_538  and  O5'_541 
REMARK       I    between atoms: O5'_541  and  C5'_542 
REMARK       I    between atoms: C5'_542  and  C4'_543 
REMARK       I    between atoms: C1'_545  and  N9_546 
REMARK       I    between atoms: C6_551  and  N6_552 
REMARK       I    between atoms: C2'_558  and  O2'_559 
REMARK       I    between atoms: C3'_561  and  O3'_562 
REMARK       I    between atoms: O3'_562  and  P_563 
REMARK       I    between atoms: P_563  and  O5'_566 
REMARK       I    between atoms: O5'_566  and  C5'_567 
REMARK       I    between atoms: C5'_567  and  C4'_568 
REMARK       I    between atoms: C1'_570  and  N1_571 
REMARK       I    between atoms: C4_576  and  N4_577 
REMARK       I    between atoms: C2'_581  and  O2'_582 
REMARK       I    between atoms: C3'_584  and  O3'_585 
REMARK       I    between atoms: O3'_585  and  P_586 
REMARK       I    between atoms: P_586  and  O5'_589 
REMARK       I    between atoms: O5'_589  and  C5'_590 
REMARK       I    between atoms: C5'_590  and  C4'_591 
REMARK       I    between atoms: C1'_593  and  N9_594 
REMARK       I    between atoms: C6_599  and  N6_600 
REMARK       I    between atoms: C2'_606  and  O2'_607 
REMARK       I    between atoms: C3'_609  and  O3'_610 
REMARK       I    between atoms: O3'_610  and  P_611 
REMARK       I    between atoms: P_611  and  O5'_614 
REMARK       I    between atoms: O5'_614  and  C5'_615 
REMARK       I    between atoms: C5'_615  and  C4'_616 
REMARK       I    between atoms: C1'_618  and  N1_619 
REMARK       I    between atoms: C4_624  and  N4_625 
REMARK       I    between atoms: C2'_629  and  O2'_630 
REMARK       I    between atoms: C3'_632  and  O3'_633 
REMARK       I    between atoms: O3'_633  and  P_634 
REMARK       I    between atoms: P_634  and  O5'_637 
REMARK       I    between atoms: O5'_637  and  C5'_638 
REMARK       I    between atoms: C5'_638  and  C4'_639 
REMARK       I    between atoms: C1'_641  and  N9_642 
REMARK       I    between atoms: C2_645  and  N2_646 
REMARK       I    between atoms: C2'_656  and  O2'_657 
REMARK       I    between atoms: C3'_659  and  O3'_660 
REMARK       I    between atoms: O3'_660  and  P_661 
REMARK       I    between atoms: P_661  and  O5'_664 
REMARK       I    between atoms: O5'_664  and  C5'_665 
REMARK       I    between atoms: C5'_665  and  C4'_666 
REMARK       I    between atoms: C1'_668  and  N1_669 
REMARK       I    between atoms: C4_674  and  N4_675 
REMARK       I    between atoms: C2'_679  and  O2'_680 
REMARK       I    between atoms: C3'_682  and  O3'_683 
REMARK       I    between atoms: O3'_683  and  P_684 
REMARK       I    between atoms: P_684  and  O5'_687 
REMARK       I    between atoms: O5'_687  and  C5'_688 
REMARK       I    between atoms: C5'_688  and  C4'_689 
REMARK       I    between atoms: C1'_691  and  N1_692 
REMARK       I    between atoms: C4_697  and  N4_698 
REMARK       I    between atoms: C2'_702  and  O2'_703 
REMARK       I    between atoms: C3'_705  and  O3'_706 
REMARK       I    between atoms: O3'_706  and  P_707 
REMARK       I    between atoms: P_707  and  O5'_710 
REMARK       I    between atoms: O5'_710  and  C5'_711 
REMARK       I    between atoms: C5'_711  and  C4'_712 
REMARK       I    between atoms: C1'_714  and  N9_715 
REMARK       I    between atoms: C2_718  and  N2_719 
REMARK       I    between atoms: C2'_729  and  O2'_730 
REMARK       I    between atoms: C3'_732  and  O3'_733 
REMARK       I    between atoms: O3'_733  and  P_734 
REMARK       I    between atoms: P_734  and  O5'_737 
REMARK       I    between atoms: O5'_737  and  C5'_738 
REMARK       I    between atoms: C5'_738  and  C4'_739 
REMARK       I    between atoms: C1'_741  and  N9_742 
REMARK       I    between atoms: C2_745  and  N2_746 
REMARK       I    between atoms: C2'_756  and  O2'_757 
REMARK       I    between atoms: C3'_759  and  O3'_760 
REMARK       I    between atoms: O3'_760  and  P_761 
REMARK       I    between atoms: P_761  and  O5'_764 
REMARK       I    between atoms: O5'_764  and  C5'_765 
REMARK       I    between atoms: C5'_765  and  C4'_766 
REMARK       I    between atoms: C1'_768  and  N9_769 
REMARK       I    between atoms: C6_774  and  N6_775 
REMARK       I    between atoms: C2'_781  and  O2'_782 
REMARK       I    between atoms: C3'_784  and  O3'_785 
REMARK       I    between atoms: O3'_785  and  P_786 
REMARK       I    between atoms: P_786  and  O5'_789 
REMARK       I    between atoms: O5'_789  and  C5'_790 
REMARK       I    between atoms: C5'_790  and  C4'_791 
REMARK       I    between atoms: C1'_793  and  N1_794 
REMARK       I    between atoms: C2'_803  and  O2'_804 
REMARK       I    between atoms: C3'_806  and  O3'_807 
REMARK       I    between atoms: O3'_807  and  P_808 
REMARK       I    between atoms: P_808  and  O5'_811 
REMARK       I    between atoms: O5'_811  and  C5'_812 
REMARK       I    between atoms: C5'_812  and  C4'_813 
REMARK       I    between atoms: C1'_815  and  N1_816 
REMARK       I    between atoms: C2'_825  and  O2'_826 
REMARK       I    between atoms: C3'_828  and  O3'_829 
REMARK       I    between atoms: O3'_829  and  P_830 
REMARK       I    between atoms: P_830  and  O5'_833 
REMARK       I    between atoms: O5'_833  and  C5'_834 
REMARK       I    between atoms: C5'_834  and  C4'_835 
REMARK       I    between atoms: C1'_837  and  N1_838 
REMARK       I    between atoms: C2'_847  and  O2'_848 
REMARK       I    between atoms: C3'_850  and  O3'_851 
REMARK       I    between atoms: O3'_851  and  P_852 
REMARK       I    between atoms: P_852  and  O5'_855 
REMARK       I    between atoms: O5'_855  and  C5'_856 
REMARK       I    between atoms: C5'_856  and  C4'_857 
REMARK       I    between atoms: C1'_859  and  N9_860 
REMARK       I    between atoms: C6_865  and  N6_866 
REMARK       I    between atoms: C2'_872  and  O2'_873 
REMARK       I    between atoms: C3'_875  and  O3'_876 
REMARK       I    between atoms: O3'_876  and  P_877 
REMARK       I    between atoms: P_877  and  O5'_880 
REMARK       I    between atoms: O5'_880  and  C5'_881 
REMARK       I    between atoms: C5'_881  and  C4'_882 
REMARK       I    between atoms: C1'_884  and  N9_885 
REMARK       I    between atoms: C2_888  and  N2_889 
REMARK       I    between atoms: C2'_899  and  O2'_900 
REMARK       I    between atoms: C3'_902  and  O3'_903 
REMARK       I    between atoms: O3'_903  and  P_904 
REMARK       I    between atoms: P_904  and  O5'_907 
REMARK       I    between atoms: O5'_907  and  C5'_908 
REMARK       I    between atoms: C5'_908  and  C4'_909 
REMARK       I    between atoms: C1'_911  and  N9_912 
REMARK       I    between atoms: C2_915  and  N2_916 
REMARK       I    between atoms: C2'_926  and  O2'_927 
REMARK       I    between atoms: C3'_929  and  O3'_930 
REMARK       I    between atoms: O3'_930  and  P_931 
REMARK       I    between atoms: P_931  and  O5'_934 
REMARK       I    between atoms: O5'_934  and  C5'_935 
REMARK       I    between atoms: C5'_935  and  C4'_936 
REMARK       I    between atoms: C1'_938  and  N1_939 
REMARK       I    between atoms: C2'_948  and  O2'_949 
REMARK       I    between atoms: C3'_951  and  O3'_952 
REMARK       I    between atoms: O3'_952  and  P_953 
REMARK       I    between atoms: P_953  and  O5'_956 
REMARK       I    between atoms: O5'_956  and  C5'_957 
REMARK       I    between atoms: C5'_957  and  C4'_958 
REMARK       I    between atoms: C1'_960  and  N1_961 
REMARK       I    between atoms: C2'_970  and  O2'_971 
REMARK       I    between atoms: C3'_973  and  O3'_974 
REMARK       I    between atoms: O3'_974  and  P_975 
REMARK       I    between atoms: P_975  and  O5'_978 
REMARK       I    between atoms: O5'_978  and  C5'_979 
REMARK       I    between atoms: C5'_979  and  C4'_980 
REMARK       I    between atoms: C1'_982  and  N9_983 
REMARK       I    between atoms: C2_986  and  N2_987 
REMARK       I    between atoms: C2'_997  and  O2'_998 
REMARK       I    between atoms: C3'_1000  and  O3'_1001 
REMARK       I    between atoms: O3'_1001  and  P_1002 
REMARK       I    between atoms: P_1002  and  O5'_1005 
REMARK       I    between atoms: O5'_1005  and  C5'_1006 
REMARK       I    between atoms: C5'_1006  and  C4'_1007 
REMARK       I    between atoms: C1'_1009  and  N1_1010 
REMARK       I    between atoms: C4_1015  and  N4_1016 
REMARK       I    between atoms: C2'_1020  and  O2'_1021 
REMARK       I    between atoms: C3'_1023  and  O3'_1024 
REMARK       I    between atoms: O3'_1024  and  P_1025 
REMARK       I    between atoms: P_1025  and  O5'_1028 
REMARK       I    between atoms: O5'_1028  and  C5'_1029 
REMARK       I    between atoms: C5'_1029  and  C4'_1030 
REMARK       I    between atoms: C1'_1032  and  N1_1033 
REMARK       I    between atoms: C4_1038  and  N4_1039 
REMARK       I    between atoms: C2'_1043  and  O2'_1044 
REMARK       I    between atoms: C3'_1046  and  O3'_1047 
REMARK       I    between atoms: O3'_1047  and  P_1048 
REMARK       I    between atoms: P_1048  and  O5'_1051 
REMARK       I    between atoms: O5'_1051  and  C5'_1052 
REMARK       I    between atoms: C5'_1052  and  C4'_1053 
REMARK       I    between atoms: C1'_1055  and  N9_1056 
REMARK       I    between atoms: C2_1059  and  N2_1060 
REMARK       I    between atoms: C2'_1070  and  O2'_1071 
REMARK       I    between atoms: C3'_1073  and  O3'_1074 
REMARK       I    between atoms: O3'_1074  and  P_1075 
REMARK       I    between atoms: P_1075  and  O5'_1078 
REMARK       I    between atoms: O5'_1078  and  C5'_1079 
REMARK       I    between atoms: C5'_1079  and  C4'_1080 
REMARK       I    between atoms: C1'_1082  and  N9_1083 
REMARK       I    between atoms: C6_1088  and  N6_1089 
REMARK       I    between atoms: C2'_1095  and  O2'_1096 
REMARK       I    between atoms: C3'_1098  and  O3'_1099 
REMARK       I    between atoms: O3'_1099  and  P_1100 
REMARK       I    between atoms: P_1100  and  O5'_1103 
REMARK       I    between atoms: O5'_1103  and  C5'_1104 
REMARK       I    between atoms: C5'_1104  and  C4'_1105 
REMARK       I    between atoms: C1'_1107  and  N9_1108 
REMARK       I    between atoms: C6_1113  and  N6_1114 
REMARK       I    between atoms: C2'_1120  and  O2'_1121 
REMARK       I    between atoms: C3'_1123  and  O3'_1124 
REMARK       I    between atoms: O3'_1124  and  P_1125 
REMARK       I    between atoms: P_1125  and  O5'_1128 
REMARK       I    between atoms: O5'_1128  and  C5'_1129 
REMARK       I    between atoms: C5'_1129  and  C4'_1130 
REMARK       I    between atoms: C1'_1132  and  N1_1133 
REMARK       I    between atoms: C4_1138  and  N4_1139 
REMARK       I    between atoms: C2'_1143  and  O2'_1144 
REMARK       I    between atoms: C3'_1146  and  O3'_1147 
REMARK       I    between atoms: O3'_1147  and  P_1148 
REMARK       I    between atoms: P_1148  and  O5'_1151 
REMARK       I    between atoms: O5'_1151  and  C5'_1152 
REMARK       I    between atoms: C5'_1152  and  C4'_1153 
REMARK       I    between atoms: C1'_1155  and  N1_1156 
REMARK       I    between atoms: C4_1161  and  N4_1162 
REMARK       I    between atoms: C2'_1166  and  O2'_1167 
REMARK       I    between atoms: C3'_1169  and  O3'_1170 
REMARK       I    between atoms: O3'_1170  and  P_1171 
REMARK       I    between atoms: P_1171  and  O5'_1174 
REMARK       I    between atoms: O5'_1174  and  C5'_1175 
REMARK       I    between atoms: C5'_1175  and  C4'_1176 
REMARK       I    between atoms: C1'_1178  and  N1_1179 
REMARK       I    between atoms: C2'_1188  and  O2'_1189 
REMARK       I    between atoms: C3'_1191  and  O3'_1192 
REMARK       I    between atoms: O3'_1192  and  P_1193 
REMARK       I    between atoms: P_1193  and  O5'_1196 
REMARK       I    between atoms: O5'_1196  and  C5'_1197 
REMARK       I    between atoms: C5'_1197  and  C4'_1198 
REMARK       I    between atoms: C1'_1200  and  N1_1201 
REMARK       I    between atoms: C4_1206  and  N4_1207 
REMARK       I    between atoms: C2'_1211  and  O2'_1212 
REMARK       I    between atoms: C3'_1214  and  O3'_1215 
REMARK       I    between atoms: O3'_1215  and  P_1216 
REMARK       I    between atoms: P_1216  and  O5'_1219 
REMARK       I    between atoms: O5'_1219  and  C5'_1220 
REMARK       I    between atoms: C5'_1220  and  C4'_1221 
REMARK       I    between atoms: C1'_1223  and  N1_1224 
REMARK       I    between atoms: C2'_1233  and  O2'_1234 
REMARK       I    between atoms: C3'_1236  and  O3'_1237 
REMARK       I    between atoms: O3'_1237  and  P_1238 
REMARK       I    between atoms: P_1238  and  O5'_1241 
REMARK       I    between atoms: O5'_1241  and  C5'_1242 
REMARK       I    between atoms: C5'_1242  and  C4'_1243 
REMARK       I    between atoms: C1'_1245  and  N1_1246 
REMARK       I    between atoms: C2'_1255  and  O2'_1256 
REMARK       I    between atoms: C3'_1258  and  O3'_1259 
REMARK       I    between atoms: O3'_1259  and  P_1260 
REMARK       I    between atoms: P_1260  and  O5'_1263 
REMARK       I    between atoms: O5'_1263  and  C5'_1264 
REMARK       I    between atoms: C5'_1264  and  C4'_1265 
REMARK       I    between atoms: C1'_1267  and  N1_1268 
REMARK       I    between atoms: C4_1273  and  N4_1274 
REMARK       I    between atoms: C2'_1278  and  O2'_1279 
REMARK       I    between atoms: C3'_1281  and  O3'_1282 
REMARK       I    between atoms: O3'_1282  and  P_1283 
REMARK       I    between atoms: P_1283  and  O5'_1286 
REMARK       I    between atoms: O5'_1286  and  C5'_1287 
REMARK       I    between atoms: C5'_1287  and  C4'_1288 
REMARK       I    between atoms: C1'_1290  and  N1_1291 
REMARK       I    between atoms: C4_1296  and  N4_1297 
REMARK       I    between atoms: C2'_1301  and  O2'_1302 
REMARK       I    between atoms: C3'_1304  and  O3'_1305 
REMARK       I    between atoms: O3'_1305  and  P_1306 
REMARK       I    between atoms: P_1306  and  O5'_1309 
REMARK       I    between atoms: O5'_1309  and  C5'_1310 
REMARK       I    between atoms: C5'_1310  and  C4'_1311 
REMARK       I    between atoms: C1'_1313  and  N1_1314 
REMARK       I    between atoms: C4_1319  and  N4_1320 
REMARK       I    between atoms: C2'_1324  and  O2'_1325 
REMARK       I    between atoms: C3'_1327  and  O3'_1328 
REMARK       I    between atoms: O3'_1328  and  P_1329 
REMARK       I    between atoms: P_1329  and  O5'_1332 
REMARK       I    between atoms: O5'_1332  and  C5'_1333 
REMARK       I    between atoms: C5'_1333  and  C4'_1334 
REMARK       I    between atoms: C1'_1336  and  N1_1337 
REMARK       I    between atoms: C4_1342  and  N4_1343 
REMARK       I    between atoms: C2'_1347  and  O2'_1348 
REMARK       I    between atoms: C3'_1350  and  O3'_1351 
REMARK       I    between atoms: O3'_1351  and  P_1352 
REMARK       I    between atoms: P_1352  and  O5'_1355 
REMARK       I    between atoms: O5'_1355  and  C5'_1356 
REMARK       I    between atoms: C5'_1356  and  C4'_1357 
REMARK       I    between atoms: C1'_1359  and  N1_1360 
REMARK       I    between atoms: C4_1365  and  N4_1366 
REMARK       I    between atoms: C2'_1370  and  O2'_1371 
REMARK       I    between atoms: C3'_1373  and  O3'_1374 
ROOT
ATOM      1 'HO5  DG A   1     105.799  91.014 188.758  1.00  0.00     0.209 HD
ATOM      2  O5'  DG A   1     105.842  90.258 189.350  1.00  0.00    -0.398 OA
ATOM      3  C5'  DG A   1     106.960  90.461 190.218  1.00  0.00     0.198 C 
ATOM      4  C4'  DG A   1     107.677  91.750 189.886  1.00  0.00     0.180 C 
ATOM      5  O4'  DG A   1     108.351  91.594 188.606  1.00  0.00    -0.353 OA
ATOM      6  C1'  DG A   1     108.167  92.759 187.823  1.00  0.00     0.262 C 
ATOM      7  N9   DG A   1     107.316  92.417 186.687  1.00  0.00    -0.293 N 
ATOM      8  C4   DG A   1     107.093  93.187 185.572  1.00  0.00     0.187 A 
ATOM      9  N3   DG A   1     107.626  94.402 185.327  1.00  0.00    -0.044 NA
ATOM     10  C2   DG A   1     107.225  94.892 184.167  1.00  0.00     0.703 A 
ATOM     11  N2   DG A   1     107.659  96.089 183.767  1.00  0.00    -0.233 N 
ATOM     12  H21  DG A   1     108.291  96.610 184.357  1.00  0.00     0.174 HD
ATOM     13  H22  DG A   1     107.354  96.468 182.881  1.00  0.00     0.174 HD
ATOM     14  N1   DG A   1     106.369  94.243 183.315  1.00  0.00    -0.153 N 
ATOM     15  H1   DG A   1     106.127  94.706 182.454  1.00  0.00     0.187 HD
ATOM     16  C6   DG A   1     105.807  92.993 183.545  1.00  0.00     0.292 A 
ATOM     17  O6   DG A   1     105.045  92.499 182.707  1.00  0.00    -0.265 OA
ATOM     18  C5   DG A   1     106.228  92.453 184.787  1.00  0.00     0.173 A 
ATOM     19  N7   DG A   1     105.914  91.245 185.397  1.00  0.00    -0.234 NA
ATOM     20  C8   DG A   1     106.581  91.270 186.518  1.00  0.00     0.214 A 
ATOM     21  C2'  DG A   1     107.573  93.829 188.738  1.00  0.00     0.199 C 
ATOM     22  O2'  DG A   1     108.633  94.505 189.388  1.00  0.00    -0.388 OA
ATOM     23 'HO2  DG A   1     108.267  95.316 189.742  1.00  0.00     0.210 HD
ATOM     24  C3'  DG A   1     106.780  92.969 189.714  1.00  0.00     0.198 C 
ATOM     25  O3'  DG A   1     106.547  93.624 190.956  1.00  0.00    -0.279 OA
ATOM     26  P    DG A   2     105.206  94.487 191.168  1.00  0.00     0.408 P 
ATOM     27  OP1  DG A   2     105.283  95.096 192.520  1.00  0.00    -0.624 OA
ATOM     28  OP2  DG A   2     104.041  93.638 190.811  1.00  0.00    -0.624 OA
ATOM     29  O5'  DG A   2     105.326  95.654 190.089  1.00  0.00    -0.287 OA
ATOM     30  C5'  DG A   2     106.162  96.787 190.322  1.00  0.00     0.216 C 
ATOM     31  C4'  DG A   2     106.189  97.679 189.101  1.00  0.00     0.180 C 
ATOM     32  O4'  DG A   2     106.440  96.874 187.922  1.00  0.00    -0.353 OA
ATOM     33  C1'  DG A   2     105.804  97.465 186.802  1.00  0.00     0.262 C 
ATOM     34  N9   DG A   2     104.964  96.456 186.164  1.00  0.00    -0.293 N 
ATOM     35  C4   DG A   2     104.364  96.553 184.931  1.00  0.00     0.187 A 
ATOM     36  N3   DG A   2     104.441  97.607 184.092  1.00  0.00    -0.044 NA
ATOM     37  C2   DG A   2     103.759  97.401 182.979  1.00  0.00     0.703 A 
ATOM     38  N2   DG A   2     103.729  98.346 182.035  1.00  0.00    -0.233 N 
ATOM     39  H21  DG A   2     104.229  99.210 182.182  1.00  0.00     0.174 HD
ATOM     40  H22  DG A   2     103.206  98.197 181.183  1.00  0.00     0.174 HD
ATOM     41  N1   DG A   2     103.057  96.256 182.709  1.00  0.00    -0.153 N 
ATOM     42  H1   DG A   2     102.571  96.203 181.828  1.00  0.00     0.187 HD
ATOM     43  C6   DG A   2     102.962  95.158 183.556  1.00  0.00     0.292 A 
ATOM     44  O6   DG A   2     102.301  94.172 183.212  1.00  0.00    -0.265 OA
ATOM     45  C5   DG A   2     103.690  95.363 184.758  1.00  0.00     0.173 A 
ATOM     46  N7   DG A   2     103.860  94.534 185.860  1.00  0.00    -0.234 NA
ATOM     47  C8   DG A   2     104.619  95.226 186.666  1.00  0.00     0.214 A 
ATOM     48  C2'  DG A   2     105.028  98.692 187.291  1.00  0.00     0.199 C 
ATOM     49  O2'  DG A   2     105.826  99.841 187.078  1.00  0.00    -0.388 OA
ATOM     50 'HO2  DG A   2     105.784 100.356 187.883  1.00  0.00     0.210 HD
ATOM     51  C3'  DG A   2     104.885  98.394 188.781  1.00  0.00     0.198 C 
ATOM     52  O3'  DG A   2     104.737  99.578 189.561  1.00  0.00    -0.279 OA
ATOM     53  P    DG A   3     103.267 100.104 189.947  1.00  0.00     0.408 P 
ATOM     54  OP1  DG A   3     103.442 101.277 190.843  1.00  0.00    -0.624 OA
ATOM     55  OP2  DG A   3     102.455  98.948 190.405  1.00  0.00    -0.624 OA
ATOM     56  O5'  DG A   3     102.666 100.626 188.566  1.00  0.00    -0.287 OA
ATOM     57  C5'  DG A   3     103.324 101.647 187.817  1.00  0.00     0.216 C 
ATOM     58  C4'  DG A   3     102.648 101.829 186.479  1.00  0.00     0.180 C 
ATOM     59  O4'  DG A   3     102.770 100.608 185.717  1.00  0.00    -0.353 OA
ATOM     60  C1'  DG A   3     101.693 100.516 184.807  1.00  0.00     0.262 C 
ATOM     61  N9   DG A   3     101.170  99.155 184.855  1.00  0.00    -0.293 N 
ATOM     62  C4   DG A   3     100.475  98.511 183.859  1.00  0.00     0.187 A 
ATOM     63  N3   DG A   3     100.151  99.030 182.655  1.00  0.00    -0.044 NA
ATOM     64  C2   DG A   3      99.482  98.168 181.912  1.00  0.00     0.703 A 
ATOM     65  N2   DG A   3      99.085  98.517 180.685  1.00  0.00    -0.233 N 
ATOM     66  H21  DG A   3      99.300  99.439 180.337  1.00  0.00     0.174 HD
ATOM     67  H22  DG A   3      98.568  97.864 180.113  1.00  0.00     0.174 HD
ATOM     68  N1   DG A   3      99.156  96.899 182.312  1.00  0.00    -0.153 N 
ATOM     69  H1   DG A   3      98.641  96.323 181.667  1.00  0.00     0.187 HD
ATOM     70  C6   DG A   3      99.479  96.341 183.545  1.00  0.00     0.292 A 
ATOM     71  O6   DG A   3      99.134  95.183 183.803  1.00  0.00    -0.265 OA
ATOM     72  C5   DG A   3     100.200  97.255 184.356  1.00  0.00     0.173 A 
ATOM     73  N7   DG A   3     100.709  97.111 185.641  1.00  0.00    -0.234 NA
ATOM     74  C8   DG A   3     101.273  98.260 185.893  1.00  0.00     0.214 A 
ATOM     75  C2'  DG A   3     100.658 101.587 185.168  1.00  0.00     0.199 C 
ATOM     76  O2'  DG A   3     100.727 102.617 184.200  1.00  0.00    -0.388 OA
ATOM     77 'HO2  DG A   3      99.963 103.177 184.343  1.00  0.00     0.210 HD
ATOM     78  C3'  DG A   3     101.148 102.079 186.532  1.00  0.00     0.198 C 
ATOM     79  O3'  DG A   3     100.874 103.463 186.741  1.00  0.00    -0.279 OA
ATOM     80  P    DG A   4      99.523 103.911 187.490  1.00  0.00     0.408 P 
ATOM     81  OP1  DG A   4      99.611 105.376 187.712  1.00  0.00    -0.624 OA
ATOM     82  OP2  DG A   4      99.299 103.007 188.647  1.00  0.00    -0.624 OA
ATOM     83  O5'  DG A   4      98.379 103.649 186.411  1.00  0.00    -0.287 OA
ATOM     84  C5'  DG A   4      97.522 102.512 186.506  1.00  0.00     0.216 C 
ATOM     85  C4'  DG A   4      96.768 102.323 185.212  1.00  0.00     0.180 C 
ATOM     86  O4'  DG A   4      97.388 101.241 184.466  1.00  0.00    -0.353 OA
ATOM     87  C1'  DG A   4      96.388 100.441 183.860  1.00  0.00     0.262 C 
ATOM     88  N9   DG A   4      96.453  99.104 184.442  1.00  0.00    -0.293 N 
ATOM     89  C4   DG A   4      95.901  97.959 183.922  1.00  0.00     0.187 A 
ATOM     90  N3   DG A   4      95.199  97.869 182.774  1.00  0.00    -0.044 NA
ATOM     91  C2   DG A   4      94.799  96.632 182.537  1.00  0.00     0.703 A 
ATOM     92  N2   DG A   4      94.092  96.363 181.437  1.00  0.00    -0.233 N 
ATOM     93  H21  DG A   4      93.870  97.110 180.795  1.00  0.00     0.174 HD
ATOM     94  H22  DG A   4      93.777  95.421 181.252  1.00  0.00     0.174 HD
ATOM     95  N1   DG A   4      95.062  95.569 183.361  1.00  0.00    -0.153 N 
ATOM     96  H1   DG A   4      94.707  94.667 183.086  1.00  0.00     0.187 HD
ATOM     97  C6   DG A   4      95.783  95.637 184.546  1.00  0.00     0.292 A 
ATOM     98  O6   DG A   4      95.964  94.611 185.214  1.00  0.00    -0.265 OA
ATOM     99  C5   DG A   4      96.222  96.958 184.815  1.00  0.00     0.173 A 
ATOM    100  N7   DG A   4      96.961  97.465 185.877  1.00  0.00    -0.234 NA
ATOM    101  C8   DG A   4      97.072  98.737 185.613  1.00  0.00     0.214 A 
ATOM    102  C2'  DG A   4      95.046 101.140 184.073  1.00  0.00     0.199 C 
ATOM    103  O2'  DG A   4      94.818 102.024 182.991  1.00  0.00    -0.388 OA
ATOM    104 'HO2  DG A   4      94.523 102.851 183.372  1.00  0.00     0.210 HD
ATOM    105  C3'  DG A   4      95.310 101.908 185.362  1.00  0.00     0.198 C 
ATOM    106  O3'  DG A   4      94.458 103.042 185.502  1.00  0.00    -0.279 OA
ATOM    107  P    DG A   5      93.047 102.892 186.258  1.00  0.00     0.408 P 
ATOM    108  OP1  DG A   5      92.381 104.219 186.214  1.00  0.00    -0.624 OA
ATOM    109  OP2  DG A   5      93.282 102.233 187.569  1.00  0.00    -0.624 OA
ATOM    110  O5'  DG A   5      92.218 101.893 185.335  1.00  0.00    -0.287 OA
ATOM    111  C5'  DG A   5      91.820 102.269 184.016  1.00  0.00     0.216 C 
ATOM    112  C4'  DG A   5      90.838 101.261 183.463  1.00  0.00     0.180 C 
ATOM    113  O4'  DG A   5      91.559 100.053 183.108  1.00  0.00    -0.353 OA
ATOM    114  C1'  DG A   5      90.773  98.916 183.418  1.00  0.00     0.262 C 
ATOM    115  N9   DG A   5      91.506  98.104 184.385  1.00  0.00    -0.293 N 
ATOM    116  C4   DG A   5      91.509  96.731 184.466  1.00  0.00     0.187 A 
ATOM    117  N3   DG A   5      90.832  95.887 183.658  1.00  0.00    -0.044 NA
ATOM    118  C2   DG A   5      91.034  94.623 183.986  1.00  0.00     0.703 A 
ATOM    119  N2   DG A   5      90.442  93.653 183.282  1.00  0.00    -0.233 N 
ATOM    120  H21  DG A   5      89.847  93.899 182.505  1.00  0.00     0.174 HD
ATOM    121  H22  DG A   5      90.582  92.682 183.526  1.00  0.00     0.174 HD
ATOM    122  N1   DG A   5      91.830  94.217 185.024  1.00  0.00    -0.153 N 
ATOM    123  H1   DG A   5      91.912  93.226 185.193  1.00  0.00     0.187 HD
ATOM    124  C6   DG A   5      92.537  95.067 185.868  1.00  0.00     0.292 A 
ATOM    125  O6   DG A   5      93.230  94.593 186.774  1.00  0.00    -0.265 OA
ATOM    126  C5   DG A   5      92.334  96.429 185.528  1.00  0.00     0.173 A 
ATOM    127  N7   DG A   5      92.841  97.587 186.103  1.00  0.00    -0.234 NA
ATOM    128  C8   DG A   5      92.323  98.551 185.393  1.00  0.00     0.214 A 
ATOM    129  C2'  DG A   5      89.417  99.403 183.931  1.00  0.00     0.199 C 
ATOM    130  O2'  DG A   5      88.514  99.457 182.841  1.00  0.00    -0.388 OA
ATOM    131 'HO2  DG A   5      87.645  99.259 183.192  1.00  0.00     0.210 HD
ATOM    132  C3'  DG A   5      89.762 100.802 184.436  1.00  0.00     0.198 C 
ATOM    133  O3'  DG A   5      88.642 101.681 184.414  1.00  0.00    -0.279 OA
ATOM    134  P    DA A   6      87.483 101.528 185.519  1.00  0.00     0.408 P 
ATOM    135  OP1  DA A   6      86.647 102.752 185.453  1.00  0.00    -0.624 OA
ATOM    136  OP2  DA A   6      88.107 101.133 186.808  1.00  0.00    -0.624 OA
ATOM    137  O5'  DA A   6      86.606 100.307 184.988  1.00  0.00    -0.287 OA
ATOM    138  C5'  DA A   6      85.667  99.653 185.840  1.00  0.00     0.216 C 
ATOM    139  C4'  DA A   6      85.490  98.215 185.412  1.00  0.00     0.180 C 
ATOM    140  O4'  DA A   6      86.778  97.672 185.017  1.00  0.00    -0.353 OA
ATOM    141  C1'  DA A   6      86.879  96.322 185.430  1.00  0.00     0.262 C 
ATOM    142  N9   DA A   6      88.016  96.204 186.342  1.00  0.00    -0.294 N 
ATOM    143  C4   DA A   6      88.567  95.039 186.819  1.00  0.00     0.167 A 
ATOM    144  N3   DA A   6      88.177  93.781 186.549  1.00  0.00    -0.222 NA
ATOM    145  C2   DA A   6      88.941  92.904 187.196  1.00  0.00     0.237 A 
ATOM    146  N1   DA A   6      89.976  93.125 188.017  1.00  0.00    -0.222 NA
ATOM    147  C6   DA A   6      90.347  94.400 188.260  1.00  0.00     0.155 A 
ATOM    148  N6   DA A   6      91.383  94.620 189.069  1.00  0.00    -0.382 N 
ATOM    149  H61  DA A   6      91.676  95.567 189.259  1.00  0.00     0.157 HD
ATOM    150  H62  DA A   6      91.875  93.845 189.491  1.00  0.00     0.157 HD
ATOM    151  C5   DA A   6      89.612  95.424 187.638  1.00  0.00     0.149 A 
ATOM    152  N7   DA A   6      89.721  96.807 187.678  1.00  0.00    -0.236 NA
ATOM    153  C8   DA A   6      88.754  97.221 186.896  1.00  0.00     0.214 A 
ATOM    154  C2'  DA A   6      85.541  95.922 186.056  1.00  0.00     0.199 C 
ATOM    155  O2'  DA A   6      84.721  95.349 185.055  1.00  0.00    -0.388 OA
ATOM    156 'HO2  DA A   6      83.819  95.573 185.285  1.00  0.00     0.210 HD
ATOM    157  C3'  DA A   6      84.996  97.274 186.502  1.00  0.00     0.198 C 
ATOM    158  O3'  DA A   6      83.571  97.284 186.587  1.00  0.00    -0.279 OA
ATOM    159  P    DG A   7      82.845  97.963 187.854  1.00  0.00     0.408 P 
ATOM    160  OP1  DG A   7      81.652  98.684 187.336  1.00  0.00    -0.624 OA
ATOM    161  OP2  DG A   7      83.853  98.702 188.656  1.00  0.00    -0.624 OA
ATOM    162  O5'  DG A   7      82.335  96.723 188.713  1.00  0.00    -0.287 OA
ATOM    163  C5'  DG A   7      81.772  95.574 188.082  1.00  0.00     0.216 C 
ATOM    164  C4'  DG A   7      82.353  94.314 188.681  1.00  0.00     0.180 C 
ATOM    165  O4'  DG A   7      83.741  94.195 188.275  1.00  0.00    -0.353 OA
ATOM    166  C1'  DG A   7      84.484  93.572 189.308  1.00  0.00     0.262 C 
ATOM    167  N9   DG A   7      85.594  94.447 189.670  1.00  0.00    -0.293 N 
ATOM    168  C4   DG A   7      86.805  94.054 190.184  1.00  0.00     0.187 A 
ATOM    169  N3   DG A   7      87.179  92.785 190.444  1.00  0.00    -0.044 NA
ATOM    170  C2   DG A   7      88.402  92.723 190.936  1.00  0.00     0.703 A 
ATOM    171  N2   DG A   7      88.927  91.537 191.254  1.00  0.00    -0.233 N 
ATOM    172  H21  DG A   7      88.378  90.702 191.112  1.00  0.00     0.174 HD
ATOM    173  H22  DG A   7      89.854  91.474 191.643  1.00  0.00     0.174 HD
ATOM    174  N1   DG A   7      89.198  93.817 191.154  1.00  0.00    -0.153 N 
ATOM    175  H1   DG A   7      90.121  93.663 191.530  1.00  0.00     0.187 HD
ATOM    176  C6   DG A   7      88.835  95.134 190.896  1.00  0.00     0.292 A 
ATOM    177  O6   DG A   7      89.632  96.048 191.134  1.00  0.00    -0.265 OA
ATOM    178  C5   DG A   7      87.521  95.218 190.368  1.00  0.00     0.173 A 
ATOM    179  N7   DG A   7      86.776  96.322 189.976  1.00  0.00    -0.234 NA
ATOM    180  C8   DG A   7      85.643  95.815 189.571  1.00  0.00     0.214 A 
ATOM    181  C2'  DG A   7      83.530  93.279 190.468  1.00  0.00     0.199 C 
ATOM    182  O2'  DG A   7      83.076  91.945 190.341  1.00  0.00    -0.388 OA
ATOM    183 'HO2  DG A   7      82.926  91.604 191.224  1.00  0.00     0.210 HD
ATOM    184  C3'  DG A   7      82.405  94.274 190.201  1.00  0.00     0.198 C 
ATOM    185  O3'  DG A   7      81.161  93.849 190.754  1.00  0.00    -0.279 OA
ATOM    186  P    DT A   8      80.235  94.898 191.548  1.00  0.00     0.408 P 
ATOM    187  OP1  DT A   8      80.573  96.267 191.084  1.00  0.00    -0.624 OA
ATOM    188  OP2  DT A   8      80.316  94.574 192.993  1.00  0.00    -0.624 OA
ATOM    189  O5'  DT A   8      78.759  94.557 191.049  1.00  0.00    -0.287 OA
ATOM    190  C5'  DT A   8      78.171  95.256 189.953  1.00  0.00     0.216 C 
ATOM    191  C4'  DT A   8      77.277  94.331 189.158  1.00  0.00     0.180 C 
ATOM    192  O4'  DT A   8      77.991  93.088 188.913  1.00  0.00    -0.353 OA
ATOM    193  C1'  DT A   8      77.114  91.989 189.083  1.00  0.00     0.264 C 
ATOM    194  N1   DT A   8      77.568  91.208 190.242  1.00  0.00    -0.280 N 
ATOM    195  C6   DT A   8      78.565  91.671 191.070  1.00  0.00     0.104 A 
ATOM    196  C2   DT A   8      76.959  89.990 190.474  1.00  0.00     0.331 A 
ATOM    197  O2   DT A   8      76.073  89.549 189.765  1.00  0.00    -0.246 OA
ATOM    198  N3   DT A   8      77.425  89.306 191.567  1.00  0.00    -0.275 N 
ATOM    199  H3   DT A   8      76.985  88.422 191.775  1.00  0.00     0.173 HD
ATOM    200  C4   DT A   8      78.417  89.708 192.433  1.00  0.00     0.250 A 
ATOM    201  O4   DT A   8      78.736  88.975 193.368  1.00  0.00    -0.268 OA
ATOM    202  C5   DT A   8      78.995  90.979 192.128  1.00  0.00     0.092 A 
ATOM    203  C2'  DT A   8      75.701  92.550 189.233  1.00  0.00     0.199 C 
ATOM    204  O2'  DT A   8      75.124  92.682 187.947  1.00  0.00    -0.388 OA
ATOM    205 'HO2  DT A   8      74.560  93.455 187.986  1.00  0.00     0.210 HD
ATOM    206  C3'  DT A   8      75.986  93.912 189.851  1.00  0.00     0.198 C 
ATOM    207  O3'  DT A   8      74.931  94.839 189.605  1.00  0.00    -0.279 OA
ATOM    208  P    DG A   9      74.663  96.045 190.636  1.00  0.00     0.408 P 
ATOM    209  OP1  DG A   9      74.509  97.279 189.826  1.00  0.00    -0.624 OA
ATOM    210  OP2  DG A   9      75.682  96.001 191.717  1.00  0.00    -0.624 OA
ATOM    211  O5'  DG A   9      73.246  95.698 191.276  1.00  0.00    -0.287 OA
ATOM    212  C5'  DG A   9      73.006  94.435 191.899  1.00  0.00     0.216 C 
ATOM    213  C4'  DG A   9      72.067  93.609 191.053  1.00  0.00     0.180 C 
ATOM    214  O4'  DG A   9      72.846  92.605 190.343  1.00  0.00    -0.353 OA
ATOM    215  C1'  DG A   9      72.197  91.350 190.422  1.00  0.00     0.262 C 
ATOM    216  N9   DG A   9      72.977  90.480 191.297  1.00  0.00    -0.293 N 
ATOM    217  C4   DG A   9      72.709  89.166 191.591  1.00  0.00     0.187 A 
ATOM    218  N3   DG A   9      71.671  88.445 191.120  1.00  0.00    -0.044 NA
ATOM    219  C2   DG A   9      71.679  87.208 191.586  1.00  0.00     0.703 A 
ATOM    220  N2   DG A   9      70.717  86.356 191.222  1.00  0.00    -0.233 N 
ATOM    221  H21  DG A   9      69.992  86.667 190.593  1.00  0.00     0.174 HD
ATOM    222  H22  DG A   9      70.712  85.410 191.577  1.00  0.00     0.174 HD
ATOM    223  N1   DG A   9      72.629  86.717 192.443  1.00  0.00    -0.153 N 
ATOM    224  H1   DG A   9      72.542  85.756 192.736  1.00  0.00     0.187 HD
ATOM    225  C6   DG A   9      73.706  87.440 192.942  1.00  0.00     0.292 A 
ATOM    226  O6   DG A   9      74.506  86.897 193.713  1.00  0.00    -0.265 OA
ATOM    227  C5   DG A   9      73.711  88.772 192.453  1.00  0.00     0.173 A 
ATOM    228  N7   DG A   9      74.594  89.816 192.693  1.00  0.00    -0.234 NA
ATOM    229  C8   DG A   9      74.118  90.806 191.990  1.00  0.00     0.214 A 
ATOM    230  C2'  DG A   9      70.779  91.613 190.926  1.00  0.00     0.199 C 
ATOM    231  O2'  DG A   9      69.957  91.949 189.823  1.00  0.00    -0.388 OA
ATOM    232 'HO2  DG A   9      69.447  92.715 190.086  1.00  0.00     0.210 HD
ATOM    233  C3'  DG A   9      71.011  92.821 191.823  1.00  0.00     0.198 C 
ATOM    234  O3'  DG A   9      69.823  93.583 192.020  1.00  0.00    -0.279 OA
ATOM    235  P    DG A  10      68.882  93.283 193.290  1.00  0.00     0.408 P 
ATOM    236  OP1  DG A  10      67.647  94.091 193.122  1.00  0.00    -0.624 OA
ATOM    237  OP2  DG A  10      69.695  93.435 194.523  1.00  0.00    -0.624 OA
ATOM    238  O5'  DG A  10      68.494  91.743 193.135  1.00  0.00    -0.287 OA
ATOM    239  C5'  DG A  10      67.519  91.323 192.182  1.00  0.00     0.216 C 
ATOM    240  C4'  DG A  10      67.052  89.918 192.492  1.00  0.00     0.180 C 
ATOM    241  O4'  DG A  10      68.132  88.987 192.208  1.00  0.00    -0.353 OA
ATOM    242  C1'  DG A  10      68.124  87.941 193.164  1.00  0.00     0.262 C 
ATOM    243  N9   DG A  10      69.387  87.975 193.894  1.00  0.00    -0.293 N 
ATOM    244  C4   DG A  10      69.898  86.979 194.692  1.00  0.00     0.187 A 
ATOM    245  N3   DG A  10      69.314  85.789 194.946  1.00  0.00    -0.044 NA
ATOM    246  C2   DG A  10      70.048  85.041 195.748  1.00  0.00     0.703 A 
ATOM    247  N2   DG A  10      69.616  83.829 196.104  1.00  0.00    -0.233 N 
ATOM    248  H21  DG A  10      68.730  83.497 195.756  1.00  0.00     0.174 HD
ATOM    249  H22  DG A  10      70.172  83.251 196.719  1.00  0.00     0.174 HD
ATOM    250  N1   DG A  10      71.260  85.426 196.262  1.00  0.00    -0.153 N 
ATOM    251  H1   DG A  10      71.740  84.777 196.866  1.00  0.00     0.187 HD
ATOM    252  C6   DG A  10      71.881  86.644 196.016  1.00  0.00     0.292 A 
ATOM    253  O6   DG A  10      72.978  86.889 196.534  1.00  0.00    -0.265 OA
ATOM    254  C5   DG A  10      71.104  87.461 195.155  1.00  0.00     0.173 A 
ATOM    255  N7   DG A  10      71.347  88.737 194.661  1.00  0.00    -0.234 NA
ATOM    256  C8   DG A  10      70.303  88.998 193.922  1.00  0.00     0.214 A 
ATOM    257  C2'  DG A  10      66.897  88.140 194.055  1.00  0.00     0.199 C 
ATOM    258  O2'  DG A  10      65.806  87.438 193.489  1.00  0.00    -0.388 OA
ATOM    259 'HO2  DG A  10      65.044  88.014 193.552  1.00  0.00     0.210 HD
ATOM    260  C3'  DG A  10      66.696  89.646 193.947  1.00  0.00     0.198 C 
ATOM    261  O3'  DG A  10      65.357  90.035 194.244  1.00  0.00    -0.279 OA
ATOM    262  P    DT A  11      64.939  90.366 195.762  1.00  0.00     0.408 P 
ATOM    263  OP1  DT A  11      63.456  90.428 195.809  1.00  0.00    -0.624 OA
ATOM    264  OP2  DT A  11      65.736  91.532 196.222  1.00  0.00    -0.624 OA
ATOM    265  O5'  DT A  11      65.412  89.085 196.584  1.00  0.00    -0.287 OA
ATOM    266  C5'  DT A  11      64.680  87.862 196.526  1.00  0.00     0.216 C 
ATOM    267  C4'  DT A  11      65.331  86.821 197.409  1.00  0.00     0.180 C 
ATOM    268  O4'  DT A  11      66.667  86.545 196.912  1.00  0.00    -0.353 OA
ATOM    269  C1'  DT A  11      67.541  86.305 198.001  1.00  0.00     0.264 C 
ATOM    270  N1   DT A  11      68.616  87.307 197.964  1.00  0.00    -0.280 N 
ATOM    271  C6   DT A  11      68.439  88.522 197.340  1.00  0.00     0.104 A 
ATOM    272  C2   DT A  11      69.814  86.987 198.577  1.00  0.00     0.331 A 
ATOM    273  O2   DT A  11      70.007  85.923 199.138  1.00  0.00    -0.246 OA
ATOM    274  N3   DT A  11      70.778  87.961 198.509  1.00  0.00    -0.275 N 
ATOM    275  H3   DT A  11      71.663  87.757 198.946  1.00  0.00     0.173 HD
ATOM    276  C4   DT A  11      70.668  89.193 197.902  1.00  0.00     0.250 A 
ATOM    277  O4   DT A  11      71.627  89.964 197.924  1.00  0.00    -0.268 OA
ATOM    278  C5   DT A  11      69.401  89.446 197.290  1.00  0.00     0.092 A 
ATOM    279  C2'  DT A  11      66.711  86.347 199.284  1.00  0.00     0.199 C 
ATOM    280  O2'  DT A  11      66.277  85.032 199.578  1.00  0.00    -0.388 OA
ATOM    281 'HO2  DT A  11      65.519  85.111 200.157  1.00  0.00     0.210 HD
ATOM    282  C3'  DT A  11      65.547  87.234 198.858  1.00  0.00     0.198 C 
ATOM    283  O3'  DT A  11      64.379  87.017 199.646  1.00  0.00    -0.279 OA
ATOM    284  P    DG A  12      64.225  87.751 201.068  1.00  0.00     0.408 P 
ATOM    285  OP1  DG A  12      62.773  87.817 201.375  1.00  0.00    -0.624 OA
ATOM    286  OP2  DG A  12      65.027  89.002 201.049  1.00  0.00    -0.624 OA
ATOM    287  O5'  DG A  12      64.903  86.742 202.098  1.00  0.00    -0.287 OA
ATOM    288  C5'  DG A  12      64.345  85.451 202.337  1.00  0.00     0.216 C 
ATOM    289  C4'  DG A  12      65.319  84.599 203.118  1.00  0.00     0.180 C 
ATOM    290  O4'  DG A  12      66.586  84.555 202.410  1.00  0.00    -0.353 OA
ATOM    291  C1'  DG A  12      67.652  84.519 203.343  1.00  0.00     0.262 C 
ATOM    292  N9   DG A  12      68.506  85.680 203.113  1.00  0.00    -0.293 N 
ATOM    293  C4   DG A  12      69.846  85.776 203.401  1.00  0.00     0.187 A 
ATOM    294  N3   DG A  12      70.608  84.809 203.953  1.00  0.00    -0.044 NA
ATOM    295  C2   DG A  12      71.859  85.199 204.111  1.00  0.00     0.703 A 
ATOM    296  N2   DG A  12      72.751  84.360 204.641  1.00  0.00    -0.233 N 
ATOM    297  H21  DG A  12      72.461  83.433 204.916  1.00  0.00     0.174 HD
ATOM    298  H22  DG A  12      73.710  84.651 204.768  1.00  0.00     0.174 HD
ATOM    299  N1   DG A  12      72.328  86.438 203.761  1.00  0.00    -0.153 N 
ATOM    300  H1   DG A  12      73.304  86.635 203.926  1.00  0.00     0.187 HD
ATOM    301  C6   DG A  12      71.565  87.451 203.193  1.00  0.00     0.292 A 
ATOM    302  O6   DG A  12      72.092  88.536 202.915  1.00  0.00    -0.265 OA
ATOM    303  C5   DG A  12      70.215  87.047 203.014  1.00  0.00     0.173 A 
ATOM    304  N7   DG A  12      69.128  87.737 202.490  1.00  0.00    -0.234 NA
ATOM    305  C8   DG A  12      68.141  86.888 202.571  1.00  0.00     0.214 A 
ATOM    306  C2'  DG A  12      67.043  84.475 204.746  1.00  0.00     0.199 C 
ATOM    307  O2'  DG A  12      66.906  83.121 205.135  1.00  0.00    -0.388 OA
ATOM    308 'HO2  DG A  12      66.004  83.013 205.437  1.00  0.00     0.210 HD
ATOM    309  C3'  DG A  12      65.683  85.119 204.501  1.00  0.00     0.198 C 
ATOM    310  O3'  DG A  12      64.715  84.738 205.475  1.00  0.00    -0.279 OA
ATOM    311  P    DG A  13      64.561  85.596 206.827  1.00  0.00     0.408 P 
ATOM    312  OP1  DG A  13      63.428  85.011 207.589  1.00  0.00    -0.624 OA
ATOM    313  OP2  DG A  13      64.540  87.039 206.474  1.00  0.00    -0.624 OA
ATOM    314  O5'  DG A  13      65.903  85.295 207.631  1.00  0.00    -0.287 OA
ATOM    315  C5'  DG A  13      66.233  83.969 208.040  1.00  0.00     0.216 C 
ATOM    316  C4'  DG A  13      67.586  83.951 208.714  1.00  0.00     0.180 C 
ATOM    317  O4'  DG A  13      68.573  84.530 207.821  1.00  0.00    -0.353 OA
ATOM    318  C1'  DG A  13      69.570  85.190 208.581  1.00  0.00     0.262 C 
ATOM    319  N9   DG A  13      69.662  86.572 208.118  1.00  0.00    -0.293 N 
ATOM    320  C4   DG A  13      70.766  87.386 208.198  1.00  0.00     0.187 A 
ATOM    321  N3   DG A  13      71.964  87.049 208.719  1.00  0.00    -0.044 NA
ATOM    322  C2   DG A  13      72.828  88.045 208.654  1.00  0.00     0.703 A 
ATOM    323  N2   DG A  13      74.066  87.879 209.127  1.00  0.00    -0.233 N 
ATOM    324  H21  DG A  13      74.323  86.989 209.530  1.00  0.00     0.174 HD
ATOM    325  H22  DG A  13      74.737  88.630 209.084  1.00  0.00     0.174 HD
ATOM    326  N1   DG A  13      72.544  89.275 208.121  1.00  0.00    -0.153 N 
ATOM    327  H1   DG A  13      73.276  89.968 208.120  1.00  0.00     0.187 HD
ATOM    328  C6   DG A  13      71.319  89.646 207.577  1.00  0.00     0.292 A 
ATOM    329  O6   DG A  13      71.173  90.785 207.118  1.00  0.00    -0.265 OA
ATOM    330  C5   DG A  13      70.377  88.585 207.639  1.00  0.00     0.173 A 
ATOM    331  N7   DG A  13      69.055  88.527 207.218  1.00  0.00    -0.234 NA
ATOM    332  C8   DG A  13      68.675  87.317 207.522  1.00  0.00     0.214 A 
ATOM    333  C2'  DG A  13      69.198  85.063 210.060  1.00  0.00     0.199 C 
ATOM    334  O2'  DG A  13      69.887  83.952 210.607  1.00  0.00    -0.388 OA
ATOM    335 'HO2  DG A  13      69.246  83.460 211.118  1.00  0.00     0.210 HD
ATOM    336  C3'  DG A  13      67.699  84.790 209.977  1.00  0.00     0.198 C 
ATOM    337  O3'  DG A  13      67.208  84.086 211.114  1.00  0.00    -0.279 OA
ATOM    338  P    DA A  14      66.374  84.873 212.242  1.00  0.00     0.408 P 
ATOM    339  OP1  DA A  14      66.047  83.895 213.311  1.00  0.00    -0.624 OA
ATOM    340  OP2  DA A  14      65.282  85.628 211.578  1.00  0.00    -0.624 OA
ATOM    341  O5'  DA A  14      67.421  85.921 212.832  1.00  0.00    -0.287 OA
ATOM    342  C5'  DA A  14      68.623  85.484 213.465  1.00  0.00     0.216 C 
ATOM    343  C4'  DA A  14      69.465  86.675 213.859  1.00  0.00     0.180 C 
ATOM    344  O4'  DA A  14      70.106  87.210 212.671  1.00  0.00    -0.353 OA
ATOM    345  C1'  DA A  14      70.119  88.625 212.731  1.00  0.00     0.262 C 
ATOM    346  N9   DA A  14      69.332  89.139 211.611  1.00  0.00    -0.294 N 
ATOM    347  C4   DA A  14      69.564  90.304 210.919  1.00  0.00     0.167 A 
ATOM    348  N3   DA A  14      70.549  91.195 211.128  1.00  0.00    -0.222 NA
ATOM    349  C2   DA A  14      70.459  92.204 210.265  1.00  0.00     0.237 A 
ATOM    350  N1   DA A  14      69.566  92.406 209.290  1.00  0.00    -0.222 NA
ATOM    351  C6   DA A  14      68.591  91.492 209.106  1.00  0.00     0.155 A 
ATOM    352  N6   DA A  14      67.704  91.695 208.131  1.00  0.00    -0.382 N 
ATOM    353  H61  DA A  14      66.967  91.023 207.974  1.00  0.00     0.157 HD
ATOM    354  H62  DA A  14      67.775  92.520 207.557  1.00  0.00     0.157 HD
ATOM    355  C5   DA A  14      68.573  90.375 209.958  1.00  0.00     0.149 A 
ATOM    356  N7   DA A  14      67.728  89.276 210.041  1.00  0.00    -0.236 NA
ATOM    357  C8   DA A  14      68.221  88.575 211.033  1.00  0.00     0.214 A 
ATOM    358  C2'  DA A  14      69.581  89.039 214.101  1.00  0.00     0.199 C 
ATOM    359  O2'  DA A  14      70.667  89.146 215.001  1.00  0.00    -0.388 OA
ATOM    360 'HO2  DA A  14      70.370  88.784 215.836  1.00  0.00     0.210 HD
ATOM    361  C3'  DA A  14      68.693  87.848 214.446  1.00  0.00     0.198 C 
ATOM    362  O3'  DA A  14      68.510  87.697 215.852  1.00  0.00    -0.279 OA
ATOM    363  P    DA A  15      67.058  87.939 216.505  1.00  0.00     0.408 P 
ATOM    364  OP1  DA A  15      66.861  86.874 217.520  1.00  0.00    -0.624 OA
ATOM    365  OP2  DA A  15      66.057  88.108 215.419  1.00  0.00    -0.624 OA
ATOM    366  O5'  DA A  15      67.213  89.322 217.280  1.00  0.00    -0.287 OA
ATOM    367  C5'  DA A  15      66.290  90.393 217.080  1.00  0.00     0.216 C 
ATOM    368  C4'  DA A  15      67.032  91.662 216.736  1.00  0.00     0.180 C 
ATOM    369  O4'  DA A  15      67.612  91.520 215.410  1.00  0.00    -0.353 OA
ATOM    370  C1'  DA A  15      67.471  92.732 214.691  1.00  0.00     0.262 C 
ATOM    371  N9   DA A  15      66.588  92.489 213.551  1.00  0.00    -0.294 N 
ATOM    372  C4   DA A  15      65.967  93.446 212.784  1.00  0.00     0.167 A 
ATOM    373  N3   DA A  15      66.043  94.780 212.928  1.00  0.00    -0.222 NA
ATOM    374  C2   DA A  15      65.306  95.394 212.005  1.00  0.00     0.237 A 
ATOM    375  N1   DA A  15      64.560  94.865 211.028  1.00  0.00    -0.222 NA
ATOM    376  C6   DA A  15      64.506  93.521 210.911  1.00  0.00     0.155 A 
ATOM    377  N6   DA A  15      63.765  92.994 209.936  1.00  0.00    -0.382 N 
ATOM    378  H61  DA A  15      63.711  91.991 209.830  1.00  0.00     0.157 HD
ATOM    379  H62  DA A  15      63.259  93.603 209.310  1.00  0.00     0.157 HD
ATOM    380  C5   DA A  15      65.242  92.755 211.832  1.00  0.00     0.149 A 
ATOM    381  N7   DA A  15      65.402  91.385 211.992  1.00  0.00    -0.236 NA
ATOM    382  C8   DA A  15      66.207  91.280 213.022  1.00  0.00     0.214 A 
ATOM    383  C2'  DA A  15      66.943  93.784 215.667  1.00  0.00     0.199 C 
ATOM    384  O2'  DA A  15      68.046  94.412 216.293  1.00  0.00    -0.388 OA
ATOM    385 'HO2  DA A  15      67.854  94.434 217.231  1.00  0.00     0.210 HD
ATOM    386  C3'  DA A  15      66.169  92.913 216.651  1.00  0.00     0.198 C 
ATOM    387  O3'  DA A  15      66.016  93.531 217.927  1.00  0.00    -0.279 OA
ATOM    388  P    DT A  16      65.077  94.829 218.084  1.00  0.00     0.408 P 
ATOM    389  OP1  DT A  16      65.601  95.872 217.166  1.00  0.00    -0.624 OA
ATOM    390  OP2  DT A  16      64.954  95.126 219.534  1.00  0.00    -0.624 OA
ATOM    391  O5'  DT A  16      63.649  94.353 217.553  1.00  0.00    -0.287 OA
ATOM    392  C5'  DT A  16      63.317  94.408 216.165  1.00  0.00     0.216 C 
ATOM    393  C4'  DT A  16      62.891  95.804 215.781  1.00  0.00     0.180 C 
ATOM    394  O4'  DT A  16      63.117  95.966 214.351  1.00  0.00    -0.353 OA
ATOM    395  C1'  DT A  16      61.918  96.367 213.724  1.00  0.00     0.264 C 
ATOM    396  N1   DT A  16      61.302  95.186 213.099  1.00  0.00    -0.280 N 
ATOM    397  C6   DT A  16      61.976  93.987 213.026  1.00  0.00     0.104 A 
ATOM    398  C2   DT A  16      60.023  95.315 212.588  1.00  0.00     0.331 A 
ATOM    399  O2   DT A  16      59.393  96.355 212.631  1.00  0.00    -0.246 OA
ATOM    400  N3   DT A  16      59.506  94.177 212.023  1.00  0.00    -0.275 N 
ATOM    401  H3   DT A  16      58.573  94.247 211.649  1.00  0.00     0.173 HD
ATOM    402  C4   DT A  16      60.123  92.952 211.917  1.00  0.00     0.250 A 
ATOM    403  O4   DT A  16      59.526  92.021 211.376  1.00  0.00    -0.268 OA
ATOM    404  C5   DT A  16      61.441  92.898 212.465  1.00  0.00     0.092 A 
ATOM    405  C2'  DT A  16      61.076  97.016 214.818  1.00  0.00     0.199 C 
ATOM    406  O2'  DT A  16      61.543  98.336 215.020  1.00  0.00    -0.388 OA
ATOM    407 'HO2  DT A  16      61.012  98.719 215.720  1.00  0.00     0.210 HD
ATOM    408  C3'  DT A  16      61.414  96.124 216.004  1.00  0.00     0.198 C 
ATOM    409  O3'  DT A  16      61.204  96.786 217.250  1.00  0.00    -0.279 OA
ATOM    410  P    DG A  17      59.912  96.429 218.141  1.00  0.00     0.408 P 
ATOM    411  OP1  DG A  17      60.151  96.980 219.499  1.00  0.00    -0.624 OA
ATOM    412  OP2  DG A  17      59.609  94.983 217.981  1.00  0.00    -0.624 OA
ATOM    413  O5'  DG A  17      58.731  97.264 217.474  1.00  0.00    -0.287 OA
ATOM    414  C5'  DG A  17      57.380  97.097 217.906  1.00  0.00     0.216 C 
ATOM    415  C4'  DG A  17      56.510  98.215 217.372  1.00  0.00     0.180 C 
ATOM    416  O4'  DG A  17      56.172  99.103 218.467  1.00  0.00    -0.353 OA
ATOM    417  C1'  DG A  17      56.039 100.426 217.980  1.00  0.00     0.262 C 
ATOM    418  N9   DG A  17      56.914 101.295 218.760  1.00  0.00    -0.293 N 
ATOM    419  C4   DG A  17      56.856 102.665 218.823  1.00  0.00     0.187 A 
ATOM    420  N3   DG A  17      55.974 103.451 218.171  1.00  0.00    -0.044 NA
ATOM    421  C2   DG A  17      56.168 104.730 218.431  1.00  0.00     0.703 A 
ATOM    422  N2   DG A  17      55.380 105.649 217.866  1.00  0.00    -0.233 N 
ATOM    423  H21  DG A  17      54.642 105.349 217.246  1.00  0.00     0.174 HD
ATOM    424  H22  DG A  17      55.522 106.629 218.053  1.00  0.00     0.174 HD
ATOM    425  N1   DG A  17      57.148 105.205 219.263  1.00  0.00    -0.153 N 
ATOM    426  H1   DG A  17      57.210 106.202 219.390  1.00  0.00     0.187 HD
ATOM    427  C6   DG A  17      58.067 104.417 219.946  1.00  0.00     0.292 A 
ATOM    428  O6   DG A  17      58.911 104.950 220.674  1.00  0.00    -0.265 OA
ATOM    429  C5   DG A  17      57.872 103.036 219.677  1.00  0.00     0.173 A 
ATOM    430  N7   DG A  17      58.557 101.921 220.143  1.00  0.00    -0.234 NA
ATOM    431  C8   DG A  17      57.954 100.914 219.572  1.00  0.00     0.214 A 
ATOM    432  C2'  DG A  17      56.360 100.422 216.485  1.00  0.00     0.199 C 
ATOM    433  O2'  DG A  17      55.143 100.366 215.765  1.00  0.00    -0.388 OA
ATOM    434 'HO2  DG A  17      55.285 100.849 214.952  1.00  0.00     0.210 HD
ATOM    435  C3'  DG A  17      57.153  99.126 216.336  1.00  0.00     0.198 C 
ATOM    436  O3'  DG A  17      57.050  98.577 215.026  1.00  0.00    -0.279 OA
ATOM    437  P    DG A  18      57.858  99.252 213.810  1.00  0.00     0.408 P 
ATOM    438  OP1  DG A  18      57.435  98.569 212.561  1.00  0.00    -0.624 OA
ATOM    439  OP2  DG A  18      59.295  99.296 214.171  1.00  0.00    -0.624 OA
ATOM    440  O5'  DG A  18      57.314 100.750 213.760  1.00  0.00    -0.287 OA
ATOM    441  C5'  DG A  18      58.063 101.778 213.116  1.00  0.00     0.216 C 
ATOM    442  C4'  DG A  18      57.486 103.134 213.452  1.00  0.00     0.180 C 
ATOM    443  O4'  DG A  18      57.323 103.230 214.894  1.00  0.00    -0.353 OA
ATOM    444  C1'  DG A  18      57.738 104.508 215.341  1.00  0.00     0.262 C 
ATOM    445  N9   DG A  18      58.930 104.338 216.167  1.00  0.00    -0.293 N 
ATOM    446  C4   DG A  18      59.433 105.239 217.076  1.00  0.00     0.187 A 
ATOM    447  N3   DG A  18      58.912 106.450 217.367  1.00  0.00    -0.044 NA
ATOM    448  C2   DG A  18      59.621 107.084 218.284  1.00  0.00     0.703 A 
ATOM    449  N2   DG A  18      59.245 108.300 218.689  1.00  0.00    -0.233 N 
ATOM    450  H21  DG A  18      58.420 108.724 218.290  1.00  0.00     0.174 HD
ATOM    451  H22  DG A  18      59.782 108.793 219.387  1.00  0.00     0.174 HD
ATOM    452  N1   DG A  18      60.751 106.576 218.871  1.00  0.00    -0.153 N 
ATOM    453  H1   DG A  18      61.220 107.138 219.563  1.00  0.00     0.187 HD
ATOM    454  C6   DG A  18      61.307 105.334 218.587  1.00  0.00     0.292 A 
ATOM    455  O6   DG A  18      62.333 104.973 219.176  1.00  0.00    -0.265 OA
ATOM    456  C5   DG A  18      60.557 104.637 217.604  1.00  0.00     0.173 A 
ATOM    457  N7   DG A  18      60.756 103.385 217.039  1.00  0.00    -0.234 NA
ATOM    458  C8   DG A  18      59.770 103.252 216.196  1.00  0.00     0.214 A 
ATOM    459  C2'  DG A  18      57.961 105.373 214.102  1.00  0.00     0.199 C 
ATOM    460  O2'  DG A  18      56.735 105.988 213.752  1.00  0.00    -0.388 OA
ATOM    461 'HO2  DG A  18      56.620 105.854 212.811  1.00  0.00     0.210 HD
ATOM    462  C3'  DG A  18      58.364 104.322 213.075  1.00  0.00     0.198 C 
ATOM    463  O3'  DG A  18      58.119 104.757 211.739  1.00  0.00    -0.279 OA
ATOM    464  P    DT A  19      59.120 104.320 210.558  1.00  0.00     0.408 P 
ATOM    465  OP1  DT A  19      58.419 104.581 209.274  1.00  0.00    -0.624 OA
ATOM    466  OP2  DT A  19      59.629 102.957 210.849  1.00  0.00    -0.624 OA
ATOM    467  O5'  DT A  19      60.336 105.344 210.679  1.00  0.00    -0.287 OA
ATOM    468  C5'  DT A  19      61.174 105.626 209.559  1.00  0.00     0.216 C 
ATOM    469  C4'  DT A  19      62.485 106.219 210.022  1.00  0.00     0.180 C 
ATOM    470  O4'  DT A  19      62.223 107.463 210.712  1.00  0.00    -0.353 OA
ATOM    471  C1'  DT A  19      63.236 107.691 211.672  1.00  0.00     0.264 C 
ATOM    472  N1   DT A  19      62.592 108.066 212.938  1.00  0.00    -0.280 N 
ATOM    473  C6   DT A  19      61.595 107.293 213.487  1.00  0.00     0.104 A 
ATOM    474  C2   DT A  19      63.022 109.223 213.563  1.00  0.00     0.331 A 
ATOM    475  O2   DT A  19      63.901 109.933 213.110  1.00  0.00    -0.246 OA
ATOM    476  N3   DT A  19      62.381 109.518 214.739  1.00  0.00    -0.275 N 
ATOM    477  H3   DT A  19      62.674 110.361 215.209  1.00  0.00     0.173 HD
ATOM    478  C4   DT A  19      61.382 108.792 215.343  1.00  0.00     0.250 A 
ATOM    479  O4   DT A  19      60.905 109.190 216.407  1.00  0.00    -0.268 OA
ATOM    480  C5   DT A  19      60.996 107.612 214.639  1.00  0.00     0.092 A 
ATOM    481  C2'  DT A  19      64.100 106.429 211.776  1.00  0.00     0.199 C 
ATOM    482  O2'  DT A  19      65.321 106.664 211.101  1.00  0.00    -0.388 OA
ATOM    483 'HO2  DT A  19      65.563 105.840 210.677  1.00  0.00     0.210 HD
ATOM    484  C3'  DT A  19      63.257 105.390 211.037  1.00  0.00     0.198 C 
ATOM    485  O3'  DT A  19      64.063 104.409 210.389  1.00  0.00    -0.279 OA
ATOM    486  P    DA A  20      63.923 102.860 210.798  1.00  0.00     0.408 P 
ATOM    487  OP1  DA A  20      62.509 102.464 210.576  1.00  0.00    -0.624 OA
ATOM    488  OP2  DA A  20      64.529 102.689 212.142  1.00  0.00    -0.624 OA
ATOM    489  O5'  DA A  20      64.836 102.097 209.737  1.00  0.00    -0.287 OA
ATOM    490  C5'  DA A  20      64.301 101.640 208.493  1.00  0.00     0.216 C 
ATOM    491  C4'  DA A  20      65.086 102.224 207.341  1.00  0.00     0.180 C 
ATOM    492  O4'  DA A  20      64.806 103.634 207.262  1.00  0.00    -0.353 OA
ATOM    493  C1'  DA A  20      65.863 104.250 206.580  1.00  0.00     0.262 C 
ATOM    494  N9   DA A  20      65.881 105.665 206.949  1.00  0.00    -0.294 N 
ATOM    495  C4   DA A  20      66.237 106.719 206.142  1.00  0.00     0.167 A 
ATOM    496  N3   DA A  20      66.640 106.666 204.860  1.00  0.00    -0.222 NA
ATOM    497  C2   DA A  20      66.903 107.888 204.401  1.00  0.00     0.237 A 
ATOM    498  N1   DA A  20      66.811 109.068 205.029  1.00  0.00    -0.222 NA
ATOM    499  C6   DA A  20      66.402 109.084 206.316  1.00  0.00     0.155 A 
ATOM    500  N6   DA A  20      66.310 110.257 206.939  1.00  0.00    -0.382 N 
ATOM    501  H61  DA A  20      66.004 110.288 207.902  1.00  0.00     0.157 HD
ATOM    502  H62  DA A  20      66.551 111.107 206.451  1.00  0.00     0.157 HD
ATOM    503  C5   DA A  20      66.096 107.854 206.919  1.00  0.00     0.149 A 
ATOM    504  N7   DA A  20      65.658 107.523 208.195  1.00  0.00    -0.236 NA
ATOM    505  C8   DA A  20      65.547 106.218 208.160  1.00  0.00     0.214 A 
ATOM    506  C2'  DA A  20      67.137 103.491 206.954  1.00  0.00     0.199 C 
ATOM    507  O2'  DA A  20      67.910 103.320 205.781  1.00  0.00    -0.388 OA
ATOM    508 'HO2  DA A  20      68.355 102.476 205.859  1.00  0.00     0.210 HD
ATOM    509  C3'  DA A  20      66.610 102.141 207.477  1.00  0.00     0.198 C 
ATOM    510  O3'  DA A  20      67.182 101.037 206.764  1.00  0.00    -0.279 OA
ATOM    511  P    DG A  21      66.529 100.523 205.380  1.00  0.00     0.408 P 
ATOM    512  OP1  DG A  21      66.387 101.687 204.469  1.00  0.00    -0.624 OA
ATOM    513  OP2  DG A  21      65.337  99.696 205.703  1.00  0.00    -0.624 OA
ATOM    514  O5'  DG A  21      67.640  99.557 204.771  1.00  0.00    -0.287 OA
ATOM    515  C5'  DG A  21      68.053  98.380 205.465  1.00  0.00     0.216 C 
ATOM    516  C4'  DG A  21      69.561  98.310 205.520  1.00  0.00     0.180 C 
ATOM    517  O4'  DG A  21      70.033  99.247 206.527  1.00  0.00    -0.353 OA
ATOM    518  C1'  DG A  21      70.574  98.539 207.627  1.00  0.00     0.262 C 
ATOM    519  N9   DG A  21      70.043  99.126 208.854  1.00  0.00    -0.293 N 
ATOM    520  C4   DG A  21      70.563  98.993 210.120  1.00  0.00     0.187 A 
ATOM    521  N3   DG A  21      71.666  98.292 210.457  1.00  0.00    -0.044 NA
ATOM    522  C2   DG A  21      71.911  98.352 211.752  1.00  0.00     0.703 A 
ATOM    523  N2   DG A  21      72.968  97.709 212.258  1.00  0.00    -0.233 N 
ATOM    524  H21  DG A  21      73.567  97.184 211.640  1.00  0.00     0.174 HD
ATOM    525  H22  DG A  21      73.163  97.752 213.248  1.00  0.00     0.174 HD
ATOM    526  N1   DG A  21      71.139  99.044 212.650  1.00  0.00    -0.153 N 
ATOM    527  H1   DG A  21      71.410  99.029 213.620  1.00  0.00     0.187 HD
ATOM    528  C6   DG A  21      70.001  99.773 212.328  1.00  0.00     0.292 A 
ATOM    529  O6   DG A  21      69.378 100.363 213.219  1.00  0.00    -0.265 OA
ATOM    530  C5   DG A  21      69.722  99.718 210.937  1.00  0.00     0.173 A 
ATOM    531  N7   DG A  21      68.696 100.297 210.202  1.00  0.00    -0.234 NA
ATOM    532  C8   DG A  21      68.928  99.918 208.975  1.00  0.00     0.214 A 
ATOM    533  C2'  DG A  21      70.215  97.065 207.445  1.00  0.00     0.199 C 
ATOM    534  O2'  DG A  21      71.274  96.274 207.956  1.00  0.00    -0.388 OA
ATOM    535 'HO2  DG A  21      72.042  96.462 207.417  1.00  0.00     0.210 HD
ATOM    536  C3'  DG A  21      70.137  96.959 205.927  1.00  0.00     0.198 C 
ATOM    537  O3'  DG A  21      71.413  96.741 205.333  1.00  0.00    -0.279 OA
ATOM    538  P    DA A  22      71.657  95.449 204.405  1.00  0.00     0.408 P 
ATOM    539  OP1  DA A  22      70.369  95.100 203.752  1.00  0.00    -0.624 OA
ATOM    540  OP2  DA A  22      72.370  94.427 205.215  1.00  0.00    -0.624 OA
ATOM    541  O5'  DA A  22      72.658  95.968 203.280  1.00  0.00    -0.287 OA
ATOM    542  C5'  DA A  22      72.259  96.968 202.344  1.00  0.00     0.216 C 
ATOM    543  C4'  DA A  22      73.379  97.961 202.133  1.00  0.00     0.180 C 
ATOM    544  O4'  DA A  22      73.345  98.939 203.206  1.00  0.00    -0.353 OA
ATOM    545  C1'  DA A  22      74.666  99.241 203.622  1.00  0.00     0.262 C 
ATOM    546  N9   DA A  22      74.825  98.794 205.006  1.00  0.00    -0.294 N 
ATOM    547  C4   DA A  22      75.987  98.819 205.738  1.00  0.00     0.167 A 
ATOM    548  N3   DA A  22      77.193  99.255 205.337  1.00  0.00    -0.222 NA
ATOM    549  C2   DA A  22      78.087  99.128 206.315  1.00  0.00     0.237 A 
ATOM    550  N1   DA A  22      77.923  98.653 207.556  1.00  0.00    -0.222 NA
ATOM    551  C6   DA A  22      76.699  98.223 207.927  1.00  0.00     0.155 A 
ATOM    552  N6   DA A  22      76.540  97.748 209.163  1.00  0.00    -0.382 N 
ATOM    553  H61  DA A  22      75.634  97.420 209.463  1.00  0.00     0.157 HD
ATOM    554  H62  DA A  22      77.331  97.719 209.788  1.00  0.00     0.157 HD
ATOM    555  C5   DA A  22      75.663  98.304 206.980  1.00  0.00     0.149 A 
ATOM    556  N7   DA A  22      74.319  97.958 207.031  1.00  0.00    -0.236 NA
ATOM    557  C8   DA A  22      73.869  98.268 205.840  1.00  0.00     0.214 A 
ATOM    558  C2'  DA A  22      75.622  98.563 202.641  1.00  0.00     0.199 C 
ATOM    559  O2'  DA A  22      75.879  99.452 201.570  1.00  0.00    -0.388 OA
ATOM    560 'HO2  DA A  22      75.746  98.956 200.762  1.00  0.00     0.210 HD
ATOM    561  C3'  DA A  22      74.784  97.376 202.185  1.00  0.00     0.198 C 
ATOM    562  O3'  DA A  22      75.191  96.879 200.913  1.00  0.00    -0.279 OA
ATOM    563  P    DC A  23      75.781  95.387 200.789  1.00  0.00     0.408 P 
ATOM    564  OP1  DC A  23      75.993  95.113 199.345  1.00  0.00    -0.624 OA
ATOM    565  OP2  DC A  23      74.928  94.473 201.591  1.00  0.00    -0.624 OA
ATOM    566  O5'  DC A  23      77.208  95.476 201.492  1.00  0.00    -0.287 OA
ATOM    567  C5'  DC A  23      78.139  96.502 201.145  1.00  0.00     0.216 C 
ATOM    568  C4'  DC A  23      79.298  96.500 202.114  1.00  0.00     0.180 C 
ATOM    569  O4'  DC A  23      78.910  97.239 203.306  1.00  0.00    -0.353 OA
ATOM    570  C1'  DC A  23      79.285  96.512 204.463  1.00  0.00     0.264 C 
ATOM    571  N1   DC A  23      78.065  95.986 205.099  1.00  0.00    -0.278 N 
ATOM    572  C6   DC A  23      76.923  95.796 204.372  1.00  0.00     0.102 A 
ATOM    573  C2   DC A  23      78.089  95.682 206.464  1.00  0.00     0.352 A 
ATOM    574  O2   DC A  23      79.136  95.864 207.100  1.00  0.00    -0.244 OA
ATOM    575  N3   DC A  23      76.971  95.198 207.053  1.00  0.00    -0.177 NA
ATOM    576  C4   DC A  23      75.863  95.018 206.333  1.00  0.00     0.128 A 
ATOM    577  N4   DC A  23      74.787  94.541 206.957  1.00  0.00    -0.384 N 
ATOM    578  H41  DC A  23      73.929  94.390 206.445  1.00  0.00     0.157 HD
ATOM    579  H42  DC A  23      74.834  94.333 207.942  1.00  0.00     0.157 HD
ATOM    580  C5   DC A  23      75.810  95.319 204.943  1.00  0.00     0.067 A 
ATOM    581  C2'  DC A  23      80.260  95.430 204.007  1.00  0.00     0.199 C 
ATOM    582  O2'  DC A  23      81.560  95.986 203.939  1.00  0.00    -0.388 OA
ATOM    583 'HO2  DC A  23      81.952  95.672 203.124  1.00  0.00     0.210 HD
ATOM    584  C3'  DC A  23      79.718  95.125 202.616  1.00  0.00     0.198 C 
ATOM    585  O3'  DC A  23      80.694  94.532 201.765  1.00  0.00    -0.279 OA
ATOM    586  P    DA A  24      80.543  92.991 201.329  1.00  0.00     0.408 P 
ATOM    587  OP1  DA A  24      81.667  92.677 200.412  1.00  0.00    -0.624 OA
ATOM    588  OP2  DA A  24      79.145  92.764 200.882  1.00  0.00    -0.624 OA
ATOM    589  O5'  DA A  24      80.764  92.185 202.686  1.00  0.00    -0.287 OA
ATOM    590  C5'  DA A  24      81.920  92.407 203.492  1.00  0.00     0.216 C 
ATOM    591  C4'  DA A  24      81.705  91.845 204.878  1.00  0.00     0.180 C 
ATOM    592  O4'  DA A  24      80.719  92.657 205.569  1.00  0.00    -0.353 OA
ATOM    593  C1'  DA A  24      79.886  91.830 206.362  1.00  0.00     0.262 C 
ATOM    594  N9   DA A  24      78.512  91.963 205.878  1.00  0.00    -0.294 N 
ATOM    595  C4   DA A  24      77.379  91.510 206.511  1.00  0.00     0.167 A 
ATOM    596  N3   DA A  24      77.307  90.860 207.685  1.00  0.00    -0.222 NA
ATOM    597  C2   DA A  24      76.043  90.575 207.986  1.00  0.00     0.237 A 
ATOM    598  N1   DA A  24      74.926  90.845 207.297  1.00  0.00    -0.222 NA
ATOM    599  C6   DA A  24      75.034  91.500 206.123  1.00  0.00     0.155 A 
ATOM    600  N6   DA A  24      73.922  91.773 205.440  1.00  0.00    -0.382 N 
ATOM    601  H61  DA A  24      73.975  92.263 204.559  1.00  0.00     0.157 HD
ATOM    602  H62  DA A  24      73.024  91.487 205.804  1.00  0.00     0.157 HD
ATOM    603  C5   DA A  24      76.323  91.859 205.689  1.00  0.00     0.149 A 
ATOM    604  N7   DA A  24      76.779  92.520 204.557  1.00  0.00    -0.236 NA
ATOM    605  C8   DA A  24      78.081  92.554 204.718  1.00  0.00     0.214 A 
ATOM    606  C2'  DA A  24      80.431  90.403 206.276  1.00  0.00     0.199 C 
ATOM    607  O2'  DA A  24      81.352  90.203 207.333  1.00  0.00    -0.388 OA
ATOM    608 'HO2  DA A  24      82.170  89.909 206.930  1.00  0.00     0.210 HD
ATOM    609  C3'  DA A  24      81.138  90.433 204.926  1.00  0.00     0.198 C 
ATOM    610  O3'  DA A  24      82.171  89.455 204.831  1.00  0.00    -0.279 OA
ATOM    611  P    DC A  25      82.037  88.251 203.773  1.00  0.00     0.408 P 
ATOM    612  OP1  DC A  25      83.298  87.469 203.832  1.00  0.00    -0.624 OA
ATOM    613  OP2  DC A  25      81.581  88.810 202.476  1.00  0.00    -0.624 OA
ATOM    614  O5'  DC A  25      80.866  87.350 204.366  1.00  0.00    -0.287 OA
ATOM    615  C5'  DC A  25      80.963  86.782 205.672  1.00  0.00     0.216 C 
ATOM    616  C4'  DC A  25      79.852  85.781 205.892  1.00  0.00     0.180 C 
ATOM    617  O4'  DC A  25      78.722  86.461 206.506  1.00  0.00    -0.353 OA
ATOM    618  C1'  DC A  25      77.513  85.949 205.976  1.00  0.00     0.264 C 
ATOM    619  N1   DC A  25      76.823  87.027 205.249  1.00  0.00    -0.278 N 
ATOM    620  C6   DC A  25      77.486  88.165 204.879  1.00  0.00     0.102 A 
ATOM    621  C2   DC A  25      75.471  86.867 204.936  1.00  0.00     0.352 A 
ATOM    622  O2   DC A  25      74.893  85.830 205.288  1.00  0.00    -0.244 OA
ATOM    623  N3   DC A  25      74.829  87.842 204.258  1.00  0.00    -0.177 NA
ATOM    624  C4   DC A  25      75.484  88.946 203.897  1.00  0.00     0.128 A 
ATOM    625  N4   DC A  25      74.806  89.877 203.226  1.00  0.00    -0.384 N 
ATOM    626  H41  DC A  25      75.265  90.727 202.934  1.00  0.00     0.157 HD
ATOM    627  H42  DC A  25      73.831  89.725 203.006  1.00  0.00     0.157 HD
ATOM    628  C5   DC A  25      76.862  89.141 204.208  1.00  0.00     0.067 A 
ATOM    629  C2'  DC A  25      77.871  84.760 205.087  1.00  0.00     0.199 C 
ATOM    630  O2'  DC A  25      77.887  83.590 205.884  1.00  0.00    -0.388 OA
ATOM    631 'HO2  DC A  25      77.295  82.963 205.466  1.00  0.00     0.210 HD
ATOM    632  C3'  DC A  25      79.270  85.151 204.633  1.00  0.00     0.198 C 
ATOM    633  O3'  DC A  25      80.032  84.031 204.192  1.00  0.00    -0.279 OA
ATOM    634  P    DG A  26      79.762  83.408 202.734  1.00  0.00     0.408 P 
ATOM    635  OP1  DG A  26      80.860  82.449 202.449  1.00  0.00    -0.624 OA
ATOM    636  OP2  DG A  26      79.495  84.521 201.786  1.00  0.00    -0.624 OA
ATOM    637  O5'  DG A  26      78.412  82.578 202.911  1.00  0.00    -0.287 OA
ATOM    638  C5'  DG A  26      78.374  81.400 203.714  1.00  0.00     0.216 C 
ATOM    639  C4'  DG A  26      77.018  80.742 203.615  1.00  0.00     0.180 C 
ATOM    640  O4'  DG A  26      75.996  81.667 204.083  1.00  0.00    -0.353 OA
ATOM    641  C1'  DG A  26      74.812  81.491 203.321  1.00  0.00     0.262 C 
ATOM    642  N9   DG A  26      74.517  82.741 202.627  1.00  0.00    -0.293 N 
ATOM    643  C4   DG A  26      73.313  83.104 202.072  1.00  0.00     0.187 A 
ATOM    644  N3   DG A  26      72.184  82.365 202.071  1.00  0.00    -0.044 NA
ATOM    645  C2   DG A  26      71.191  82.983 201.457  1.00  0.00     0.703 A 
ATOM    646  N2   DG A  26      69.998  82.390 201.367  1.00  0.00    -0.233 N 
ATOM    647  H21  DG A  26      69.870  81.474 201.770  1.00  0.00     0.174 HD
ATOM    648  H22  DG A  26      69.228  82.854 200.904  1.00  0.00     0.174 HD
ATOM    649  N1   DG A  26      71.294  84.227 200.887  1.00  0.00    -0.153 N 
ATOM    650  H1   DG A  26      70.474  84.611 200.440  1.00  0.00     0.187 HD
ATOM    651  C6   DG A  26      72.444  85.007 200.875  1.00  0.00     0.292 A 
ATOM    652  O6   DG A  26      72.427  86.118 200.333  1.00  0.00    -0.265 OA
ATOM    653  C5   DG A  26      73.522  84.356 201.532  1.00  0.00     0.173 A 
ATOM    654  N7   DG A  26      74.830  84.772 201.744  1.00  0.00    -0.234 NA
ATOM    655  C8   DG A  26      75.380  83.783 202.395  1.00  0.00     0.214 A 
ATOM    656  C2'  DG A  26      75.048  80.313 202.376  1.00  0.00     0.199 C 
ATOM    657  O2'  DG A  26      74.653  79.120 203.029  1.00  0.00    -0.388 OA
ATOM    658 'HO2  DG A  26      75.314  78.459 202.819  1.00  0.00     0.210 HD
ATOM    659  C3'  DG A  26      76.561  80.376 202.211  1.00  0.00     0.198 C 
ATOM    660  O3'  DG A  26      77.115  79.139 201.773  1.00  0.00    -0.279 OA
ATOM    661  P    DC A  27      77.458  78.924 200.217  1.00  0.00     0.408 P 
ATOM    662  OP1  DC A  27      77.984  77.543 200.065  1.00  0.00    -0.624 OA
ATOM    663  OP2  DC A  27      78.274  80.074 199.752  1.00  0.00    -0.624 OA
ATOM    664  O5'  DC A  27      76.039  78.999 199.494  1.00  0.00    -0.287 OA
ATOM    665  C5'  DC A  27      75.014  78.050 199.788  1.00  0.00     0.216 C 
ATOM    666  C4'  DC A  27      73.679  78.548 199.279  1.00  0.00     0.180 C 
ATOM    667  O4'  DC A  27      73.390  79.838 199.876  1.00  0.00    -0.353 OA
ATOM    668  C1'  DC A  27      72.630  80.619 198.969  1.00  0.00     0.264 C 
ATOM    669  N1   DC A  27      73.329  81.896 198.748  1.00  0.00    -0.278 N 
ATOM    670  C6   DC A  27      74.616  82.078 199.175  1.00  0.00     0.102 A 
ATOM    671  C2   DC A  27      72.655  82.927 198.090  1.00  0.00     0.352 A 
ATOM    672  O2   DC A  27      71.489  82.739 197.714  1.00  0.00    -0.244 OA
ATOM    673  N3   DC A  27      73.285  84.102 197.880  1.00  0.00    -0.177 NA
ATOM    674  C4   DC A  27      74.538  84.272 198.303  1.00  0.00     0.128 A 
ATOM    675  N4   DC A  27      75.116  85.450 198.077  1.00  0.00    -0.384 N 
ATOM    676  H41  DC A  27      76.064  85.620 198.382  1.00  0.00     0.157 HD
ATOM    677  H42  DC A  27      74.600  86.178 197.603  1.00  0.00     0.157 HD
ATOM    678  C5   DC A  27      75.252  83.239 198.978  1.00  0.00     0.067 A 
ATOM    679  C2'  DC A  27      72.439  79.799 197.691  1.00  0.00     0.199 C 
ATOM    680  O2'  DC A  27      71.192  79.133 197.767  1.00  0.00    -0.388 OA
ATOM    681 'HO2  DC A  27      71.345  78.224 197.504  1.00  0.00     0.210 HD
ATOM    682  C3'  DC A  27      73.599  78.814 197.785  1.00  0.00     0.198 C 
ATOM    683  O3'  DC A  27      73.357  77.619 197.048  1.00  0.00    -0.279 OA
ATOM    684  P    DC A  28      73.745  77.547 195.487  1.00  0.00     0.408 P 
ATOM    685  OP1  DC A  28      73.452  76.166 195.022  1.00  0.00    -0.624 OA
ATOM    686  OP2  DC A  28      75.110  78.104 195.317  1.00  0.00    -0.624 OA
ATOM    687  O5'  DC A  28      72.713  78.540 194.785  1.00  0.00    -0.287 OA
ATOM    688  C5'  DC A  28      71.407  78.103 194.415  1.00  0.00     0.216 C 
ATOM    689  C4'  DC A  28      70.763  79.103 193.481  1.00  0.00     0.180 C 
ATOM    690  O4'  DC A  28      70.573  80.359 194.190  1.00  0.00    -0.353 OA
ATOM    691  C1'  DC A  28      70.800  81.444 193.306  1.00  0.00     0.264 C 
ATOM    692  N1   DC A  28      71.944  82.222 193.807  1.00  0.00    -0.278 N 
ATOM    693  C6   DC A  28      72.896  81.637 194.594  1.00  0.00     0.102 A 
ATOM    694  C2   DC A  28      72.044  83.572 193.465  1.00  0.00     0.352 A 
ATOM    695  O2   DC A  28      71.168  84.078 192.747  1.00  0.00    -0.244 OA
ATOM    696  N3   DC A  28      73.090  84.294 193.921  1.00  0.00    -0.177 NA
ATOM    697  C4   DC A  28      74.013  83.716 194.691  1.00  0.00     0.128 A 
ATOM    698  N4   DC A  28      75.026  84.470 195.119  1.00  0.00    -0.384 N 
ATOM    699  H41  DC A  28      75.746  84.075 195.704  1.00  0.00     0.157 HD
ATOM    700  H42  DC A  28      75.066  85.444 194.853  1.00  0.00     0.157 HD
ATOM    701  C5   DC A  28      73.938  82.341 195.056  1.00  0.00     0.067 A 
ATOM    702  C2'  DC A  28      71.021  80.860 191.911  1.00  0.00     0.199 C 
ATOM    703  O2'  DC A  28      69.768  80.759 191.262  1.00  0.00    -0.388 OA
ATOM    704 'HO2  DC A  28      69.663  79.844 191.000  1.00  0.00     0.210 HD
ATOM    705  C3'  DC A  28      71.579  79.486 192.255  1.00  0.00     0.198 C 
ATOM    706  O3'  DC A  28      71.408  78.551 191.192  1.00  0.00    -0.279 OA
ATOM    707  P    DG A  29      72.430  78.559 189.950  1.00  0.00     0.408 P 
ATOM    708  OP1  DG A  29      72.029  77.451 189.044  1.00  0.00    -0.624 OA
ATOM    709  OP2  DG A  29      73.816  78.605 190.483  1.00  0.00    -0.624 OA
ATOM    710  O5'  DG A  29      72.130  79.938 189.208  1.00  0.00    -0.287 OA
ATOM    711  C5'  DG A  29      70.860  80.189 188.608  1.00  0.00     0.216 C 
ATOM    712  C4'  DG A  29      70.951  81.359 187.655  1.00  0.00     0.180 C 
ATOM    713  O4'  DG A  29      70.921  82.598 188.409  1.00  0.00    -0.353 OA
ATOM    714  C1'  DG A  29      71.642  83.593 187.706  1.00  0.00     0.262 C 
ATOM    715  N9   DG A  29      72.628  84.178 188.610  1.00  0.00    -0.293 N 
ATOM    716  C4   DG A  29      73.106  85.465 188.573  1.00  0.00     0.187 A 
ATOM    717  N3   DG A  29      72.739  86.423 187.696  1.00  0.00    -0.044 NA
ATOM    718  C2   DG A  29      73.378  87.559 187.910  1.00  0.00     0.703 A 
ATOM    719  N2   DG A  29      73.131  88.617 187.131  1.00  0.00    -0.233 N 
ATOM    720  H21  DG A  29      72.456  88.533 186.384  1.00  0.00     0.174 HD
ATOM    721  H22  DG A  29      73.610  89.490 187.290  1.00  0.00     0.174 HD
ATOM    722  N1   DG A  29      74.305  87.743 188.902  1.00  0.00    -0.153 N 
ATOM    723  H1   DG A  29      74.737  88.652 188.984  1.00  0.00     0.187 HD
ATOM    724  C6   DG A  29      74.700  86.774 189.817  1.00  0.00     0.292 A 
ATOM    725  O6   DG A  29      75.553  87.049 190.671  1.00  0.00    -0.265 OA
ATOM    726  C5   DG A  29      74.020  85.546 189.603  1.00  0.00     0.173 A 
ATOM    727  N7   DG A  29      74.109  84.336 190.279  1.00  0.00    -0.234 NA
ATOM    728  C8   DG A  29      73.267  83.558 189.656  1.00  0.00     0.214 A 
ATOM    729  C2'  DG A  29      72.266  82.941 186.469  1.00  0.00     0.199 C 
ATOM    730  O2'  DG A  29      71.432  83.203 185.356  1.00  0.00    -0.388 OA
ATOM    731 'HO2  DG A  29      71.946  83.744 184.755  1.00  0.00     0.210 HD
ATOM    732  C3'  DG A  29      72.237  81.463 186.852  1.00  0.00     0.198 C 
ATOM    733  O3'  DG A  29      72.217  80.606 185.713  1.00  0.00    -0.279 OA
ATOM    734  P    DG A  30      73.601  80.167 185.019  1.00  0.00     0.408 P 
ATOM    735  OP1  DG A  30      73.259  79.341 183.831  1.00  0.00    -0.624 OA
ATOM    736  OP2  DG A  30      74.492  79.606 186.067  1.00  0.00    -0.624 OA
ATOM    737  O5'  DG A  30      74.234  81.537 184.506  1.00  0.00    -0.287 OA
ATOM    738  C5'  DG A  30      73.875  82.086 183.238  1.00  0.00     0.216 C 
ATOM    739  C4'  DG A  30      74.203  83.562 183.194  1.00  0.00     0.180 C 
ATOM    740  O4'  DG A  30      73.939  84.145 184.499  1.00  0.00    -0.353 OA
ATOM    741  C1'  DG A  30      74.936  85.101 184.809  1.00  0.00     0.262 C 
ATOM    742  N9   DG A  30      75.658  84.646 185.994  1.00  0.00    -0.293 N 
ATOM    743  C4   DG A  30      76.400  85.427 186.847  1.00  0.00     0.187 A 
ATOM    744  N3   DG A  30      76.592  86.758 186.738  1.00  0.00    -0.044 NA
ATOM    745  C2   DG A  30      77.354  87.226 187.710  1.00  0.00     0.703 A 
ATOM    746  N2   DG A  30      77.650  88.528 187.749  1.00  0.00    -0.233 N 
ATOM    747  H21  DG A  30      77.286  89.139 187.030  1.00  0.00     0.174 HD
ATOM    748  H22  DG A  30      78.227  88.902 188.487  1.00  0.00     0.174 HD
ATOM    749  N1   DG A  30      77.883  86.455 188.713  1.00  0.00    -0.153 N 
ATOM    750  H1   DG A  30      78.450  86.908 189.411  1.00  0.00     0.187 HD
ATOM    751  C6   DG A  30      77.698  85.083 188.846  1.00  0.00     0.292 A 
ATOM    752  O6   DG A  30      78.221  84.483 189.791  1.00  0.00    -0.265 OA
ATOM    753  C5   DG A  30      76.883  84.563 187.806  1.00  0.00     0.173 A 
ATOM    754  N7   DG A  30      76.455  83.265 187.562  1.00  0.00    -0.234 NA
ATOM    755  C8   DG A  30      75.735  83.364 186.480  1.00  0.00     0.214 A 
ATOM    756  C2'  DG A  30      75.822  85.265 183.573  1.00  0.00     0.199 C 
ATOM    757  O2'  DG A  30      75.285  86.295 182.765  1.00  0.00    -0.388 OA
ATOM    758 'HO2  DG A  30      75.328  85.984 181.861  1.00  0.00     0.210 HD
ATOM    759  C3'  DG A  30      75.659  83.903 182.907  1.00  0.00     0.198 C 
ATOM    760  O3'  DG A  30      75.917  83.953 181.505  1.00  0.00    -0.279 OA
ATOM    761  P    DA A  31      77.417  83.753 180.959  1.00  0.00     0.408 P 
ATOM    762  OP1  DA A  31      77.396  84.045 179.502  1.00  0.00    -0.624 OA
ATOM    763  OP2  DA A  31      77.916  82.439 181.436  1.00  0.00    -0.624 OA
ATOM    764  O5'  DA A  31      78.251  84.900 181.686  1.00  0.00    -0.287 OA
ATOM    765  C5'  DA A  31      78.215  86.249 181.219  1.00  0.00     0.216 C 
ATOM    766  C4'  DA A  31      79.351  87.041 181.825  1.00  0.00     0.180 C 
ATOM    767  O4'  DA A  31      79.149  87.117 183.264  1.00  0.00    -0.353 OA
ATOM    768  C1'  DA A  31      80.372  86.879 183.934  1.00  0.00     0.262 C 
ATOM    769  N9   DA A  31      80.270  85.603 184.641  1.00  0.00    -0.294 N 
ATOM    770  C4   DA A  31      81.015  85.212 185.727  1.00  0.00     0.167 A 
ATOM    771  N3   DA A  31      81.977  85.915 186.351  1.00  0.00    -0.222 NA
ATOM    772  C2   DA A  31      82.483  85.216 187.365  1.00  0.00     0.237 A 
ATOM    773  N1   DA A  31      82.162  83.989 187.792  1.00  0.00    -0.222 NA
ATOM    774  C6   DA A  31      81.192  83.312 187.142  1.00  0.00     0.155 A 
ATOM    775  N6   DA A  31      80.873  82.090 187.570  1.00  0.00    -0.382 N 
ATOM    776  H61  DA A  31      80.151  81.563 187.100  1.00  0.00     0.157 HD
ATOM    777  H62  DA A  31      81.363  81.695 188.359  1.00  0.00     0.157 HD
ATOM    778  C5   DA A  31      80.575  83.941 186.048  1.00  0.00     0.149 A 
ATOM    779  N7   DA A  31      79.568  83.537 185.183  1.00  0.00    -0.236 NA
ATOM    780  C8   DA A  31      79.424  84.554 184.370  1.00  0.00     0.214 A 
ATOM    781  C2'  DA A  31      81.481  86.913 182.885  1.00  0.00     0.199 C 
ATOM    782  O2'  DA A  31      81.918  88.250 182.735  1.00  0.00    -0.388 OA
ATOM    783 'HO2  DA A  31      81.140  88.778 182.546  1.00  0.00     0.210 HD
ATOM    784  C3'  DA A  31      80.735  86.430 181.646  1.00  0.00     0.198 C 
ATOM    785  O3'  DA A  31      81.344  86.878 180.439  1.00  0.00    -0.279 OA
ATOM    786  P    DT A  32      82.408  85.938 179.682  1.00  0.00     0.408 P 
ATOM    787  OP1  DT A  32      82.895  86.694 178.500  1.00  0.00    -0.624 OA
ATOM    788  OP2  DT A  32      81.800  84.596 179.496  1.00  0.00    -0.624 OA
ATOM    789  O5'  DT A  32      83.616  85.805 180.715  1.00  0.00    -0.287 OA
ATOM    790  C5'  DT A  32      84.655  84.848 180.510  1.00  0.00     0.216 C 
ATOM    791  C4'  DT A  32      85.892  85.249 181.283  1.00  0.00     0.180 C 
ATOM    792  O4'  DT A  32      86.322  86.559 180.833  1.00  0.00    -0.353 OA
ATOM    793  C1'  DT A  32      86.852  87.290 181.924  1.00  0.00     0.264 C 
ATOM    794  N1   DT A  32      86.086  88.537 182.061  1.00  0.00    -0.280 N 
ATOM    795  C6   DT A  32      84.811  88.653 181.554  1.00  0.00     0.104 A 
ATOM    796  C2   DT A  32      86.691  89.594 182.716  1.00  0.00     0.331 A 
ATOM    797  O2   DT A  32      87.813  89.530 183.183  1.00  0.00    -0.246 OA
ATOM    798  N3   DT A  32      85.931  90.732 182.806  1.00  0.00    -0.275 N 
ATOM    799  H3   DT A  32      86.354  91.515 183.279  1.00  0.00     0.173 HD
ATOM    800  C4   DT A  32      84.656  90.917 182.321  1.00  0.00     0.250 A 
ATOM    801  O4   DT A  32      84.107  92.008 182.473  1.00  0.00    -0.268 OA
ATOM    802  C5   DT A  32      84.099  89.779 181.662  1.00  0.00     0.092 A 
ATOM    803  C2'  DT A  32      86.800  86.394 183.165  1.00  0.00     0.199 C 
ATOM    804  O2'  DT A  32      88.051  85.749 183.305  1.00  0.00    -0.388 OA
ATOM    805 'HO2  DT A  32      88.451  86.098 184.103  1.00  0.00     0.210 HD
ATOM    806  C3'  DT A  32      85.704  85.402 182.786  1.00  0.00     0.198 C 
ATOM    807  O3'  DT A  32      85.850  84.151 183.452  1.00  0.00    -0.279 OA
ATOM    808  P    DT A  33      85.058  83.876 184.824  1.00  0.00     0.408 P 
ATOM    809  OP1  DT A  33      85.325  82.468 185.212  1.00  0.00    -0.624 OA
ATOM    810  OP2  DT A  33      83.657  84.336 184.653  1.00  0.00    -0.624 OA
ATOM    811  O5'  DT A  33      85.772  84.830 185.882  1.00  0.00    -0.287 OA
ATOM    812  C5'  DT A  33      87.167  84.703 186.159  1.00  0.00     0.216 C 
ATOM    813  C4'  DT A  33      87.615  85.799 187.097  1.00  0.00     0.180 C 
ATOM    814  O4'  DT A  33      87.714  87.041 186.350  1.00  0.00    -0.353 OA
ATOM    815  C1'  DT A  33      87.221  88.113 187.133  1.00  0.00     0.264 C 
ATOM    816  N1   DT A  33      86.035  88.665 186.461  1.00  0.00    -0.280 N 
ATOM    817  C6   DT A  33      85.092  87.838 185.894  1.00  0.00     0.104 A 
ATOM    818  C2   DT A  33      85.898  90.040 186.418  1.00  0.00     0.331 A 
ATOM    819  O2   DT A  33      86.712  90.803 186.906  1.00  0.00    -0.246 OA
ATOM    820  N3   DT A  33      84.770  90.488 185.780  1.00  0.00    -0.275 N 
ATOM    821  H3   DT A  33      84.644  91.488 185.743  1.00  0.00     0.173 HD
ATOM    822  C4   DT A  33      83.790  89.721 185.192  1.00  0.00     0.250 A 
ATOM    823  O4   DT A  33      82.828  90.274 184.663  1.00  0.00    -0.268 OA
ATOM    824  C5   DT A  33      84.007  88.312 185.278  1.00  0.00     0.092 A 
ATOM    825  C2'  DT A  33      86.939  87.574 188.535  1.00  0.00     0.199 C 
ATOM    826  O2'  DT A  33      88.102  87.722 189.325  1.00  0.00    -0.388 OA
ATOM    827 'HO2  DT A  33      88.601  86.908 189.222  1.00  0.00     0.210 HD
ATOM    828  C3'  DT A  33      86.660  86.105 188.243  1.00  0.00     0.198 C 
ATOM    829  O3'  DT A  33      86.924  85.274 189.370  1.00  0.00    -0.279 OA
ATOM    830  P    DT A  34      85.788  84.272 189.908  1.00  0.00     0.408 P 
ATOM    831  OP1  DT A  34      86.048  84.051 191.354  1.00  0.00    -0.624 OA
ATOM    832  OP2  DT A  34      85.721  83.108 188.988  1.00  0.00    -0.624 OA
ATOM    833  O5'  DT A  34      84.437  85.105 189.760  1.00  0.00    -0.287 OA
ATOM    834  C5'  DT A  34      83.873  85.803 190.870  1.00  0.00     0.216 C 
ATOM    835  C4'  DT A  34      84.510  87.167 191.006  1.00  0.00     0.180 C 
ATOM    836  O4'  DT A  34      84.263  87.919 189.784  1.00  0.00    -0.353 OA
ATOM    837  C1'  DT A  34      83.449  89.040 190.067  1.00  0.00     0.264 C 
ATOM    838  N1   DT A  34      82.470  89.191 188.980  1.00  0.00    -0.280 N 
ATOM    839  C6   DT A  34      82.416  90.343 188.230  1.00  0.00     0.104 A 
ATOM    840  C2   DT A  34      81.606  88.139 188.731  1.00  0.00     0.331 A 
ATOM    841  O2   DT A  34      81.608  87.109 189.379  1.00  0.00    -0.246 OA
ATOM    842  N3   DT A  34      80.731  88.340 187.695  1.00  0.00    -0.275 N 
ATOM    843  H3   DT A  34      80.110  87.577 187.474  1.00  0.00     0.173 HD
ATOM    844  C4   DT A  34      80.624  89.463 186.908  1.00  0.00     0.250 A 
ATOM    845  O4   DT A  34      79.778  89.494 186.015  1.00  0.00    -0.268 OA
ATOM    846  C5   DT A  34      81.542  90.508 187.234  1.00  0.00     0.092 A 
ATOM    847  C2'  DT A  34      82.829  88.799 191.442  1.00  0.00     0.199 C 
ATOM    848  O2'  DT A  34      82.596  90.054 192.056  1.00  0.00    -0.388 OA
ATOM    849 'HO2  DT A  34      82.879  89.986 192.967  1.00  0.00     0.210 HD
ATOM    850  C3'  DT A  34      83.946  88.027 192.133  1.00  0.00     0.198 C 
ATOM    851  O3'  DT A  34      84.949  88.880 192.683  1.00  0.00    -0.279 OA
ATOM    852  P    DA A  35      84.908  89.261 194.245  1.00  0.00     0.408 P 
ATOM    853  OP1  DA A  35      84.561  88.032 195.000  1.00  0.00    -0.624 OA
ATOM    854  OP2  DA A  35      84.069  90.478 194.396  1.00  0.00    -0.624 OA
ATOM    855  O5'  DA A  35      86.417  89.642 194.593  1.00  0.00    -0.287 OA
ATOM    856  C5'  DA A  35      87.482  88.726 194.340  1.00  0.00     0.216 C 
ATOM    857  C4'  DA A  35      88.435  88.686 195.514  1.00  0.00     0.180 C 
ATOM    858  O4'  DA A  35      89.775  88.979 195.026  1.00  0.00    -0.353 OA
ATOM    859  C1'  DA A  35      90.386  89.946 195.857  1.00  0.00     0.262 C 
ATOM    860  N9   DA A  35      90.416  91.219 195.136  1.00  0.00    -0.294 N 
ATOM    861  C4   DA A  35      91.347  92.217 195.283  1.00  0.00     0.167 A 
ATOM    862  N3   DA A  35      92.410  92.225 196.106  1.00  0.00    -0.222 NA
ATOM    863  C2   DA A  35      93.092  93.361 195.981  1.00  0.00     0.237 A 
ATOM    864  N1   DA A  35      92.850  94.413 195.185  1.00  0.00    -0.222 NA
ATOM    865  C6   DA A  35      91.774  94.371 194.370  1.00  0.00     0.155 A 
ATOM    866  N6   DA A  35      91.536  95.418 193.576  1.00  0.00    -0.382 N 
ATOM    867  H61  DA A  35      90.740  95.417 192.954  1.00  0.00     0.157 HD
ATOM    868  H62  DA A  35      92.153  96.217 193.595  1.00  0.00     0.157 HD
ATOM    869  C5   DA A  35      90.968  93.219 194.408  1.00  0.00     0.149 A 
ATOM    870  N7   DA A  35      89.818  92.858 193.719  1.00  0.00    -0.236 NA
ATOM    871  C8   DA A  35      89.532  91.668 194.188  1.00  0.00     0.214 A 
ATOM    872  C2'  DA A  35      89.575  89.988 197.148  1.00  0.00     0.199 C 
ATOM    873  O2'  DA A  35      90.016  88.943 197.996  1.00  0.00    -0.388 OA
ATOM    874 'HO2  DA A  35      89.228  88.540 198.363  1.00  0.00     0.210 HD
ATOM    875  C3'  DA A  35      88.176  89.711 196.616  1.00  0.00     0.198 C 
ATOM    876  O3'  DA A  35      87.308  89.196 197.622  1.00  0.00    -0.279 OA
ATOM    877  P    DG A  36      86.655  90.194 198.702  1.00  0.00     0.408 P 
ATOM    878  OP1  DG A  36      85.776  89.377 199.577  1.00  0.00    -0.624 OA
ATOM    879  OP2  DG A  36      86.089  91.362 197.981  1.00  0.00    -0.624 OA
ATOM    880  O5'  DG A  36      87.895  90.694 199.571  1.00  0.00    -0.287 OA
ATOM    881  C5'  DG A  36      88.466  89.865 200.584  1.00  0.00     0.216 C 
ATOM    882  C4'  DG A  36      89.646  90.559 201.228  1.00  0.00     0.180 C 
ATOM    883  O4'  DG A  36      90.462  91.174 200.199  1.00  0.00    -0.353 OA
ATOM    884  C1'  DG A  36      91.065  92.350 200.712  1.00  0.00     0.262 C 
ATOM    885  N9   DG A  36      90.709  93.467 199.842  1.00  0.00    -0.293 N 
ATOM    886  C4   DG A  36      91.395  94.650 199.708  1.00  0.00     0.187 A 
ATOM    887  N3   DG A  36      92.527  94.990 200.362  1.00  0.00    -0.044 NA
ATOM    888  C2   DG A  36      92.950  96.194 200.021  1.00  0.00     0.703 A 
ATOM    889  N2   DG A  36      94.062  96.689 200.574  1.00  0.00    -0.233 N 
ATOM    890  H21  DG A  36      94.572  96.138 201.249  1.00  0.00     0.174 HD
ATOM    891  H22  DG A  36      94.395  97.608 200.318  1.00  0.00     0.174 HD
ATOM    892  N1   DG A  36      92.315  97.004 199.114  1.00  0.00    -0.153 N 
ATOM    893  H1   DG A  36      92.722  97.908 198.927  1.00  0.00     0.187 HD
ATOM    894  C6   DG A  36      91.151  96.677 198.429  1.00  0.00     0.292 A 
ATOM    895  O6   DG A  36      90.661  97.484 197.631  1.00  0.00    -0.265 OA
ATOM    896  C5   DG A  36      90.683  95.384 198.783  1.00  0.00     0.173 A 
ATOM    897  N7   DG A  36      89.571  94.676 198.343  1.00  0.00    -0.234 NA
ATOM    898  C8   DG A  36      89.629  93.549 198.998  1.00  0.00     0.214 A 
ATOM    899  C2'  DG A  36      90.597  92.526 202.159  1.00  0.00     0.199 C 
ATOM    900  O2'  DG A  36      91.560  91.952 203.024  1.00  0.00    -0.388 OA
ATOM    901 'HO2  DG A  36      91.086  91.663 203.803  1.00  0.00     0.210 HD
ATOM    902  C3'  DG A  36      89.307  91.712 202.162  1.00  0.00     0.198 C 
ATOM    903  O3'  DG A  36      88.961  91.246 203.464  1.00  0.00    -0.279 OA
ATOM    904  P    DG A  37      87.997  92.130 204.400  1.00  0.00     0.408 P 
ATOM    905  OP1  DG A  37      87.728  91.339 205.628  1.00  0.00    -0.624 OA
ATOM    906  OP2  DG A  37      86.859  92.616 203.579  1.00  0.00    -0.624 OA
ATOM    907  O5'  DG A  37      88.894  93.382 204.807  1.00  0.00    -0.287 OA
ATOM    908  C5'  DG A  37      89.865  93.284 205.848  1.00  0.00     0.216 C 
ATOM    909  C4'  DG A  37      90.752  94.510 205.854  1.00  0.00     0.180 C 
ATOM    910  O4'  DG A  37      91.109  94.847 204.489  1.00  0.00    -0.353 OA
ATOM    911  C1'  DG A  37      91.315  96.244 204.387  1.00  0.00     0.262 C 
ATOM    912  N9   DG A  37      90.496  96.757 203.291  1.00  0.00    -0.293 N 
ATOM    913  C4   DG A  37      90.654  97.963 202.653  1.00  0.00     0.187 A 
ATOM    914  N3   DG A  37      91.599  98.886 202.925  1.00  0.00    -0.044 NA
ATOM    915  C2   DG A  37      91.494  99.944 202.143  1.00  0.00     0.703 A 
ATOM    916  N2   DG A  37      92.356 100.951 202.279  1.00  0.00    -0.233 N 
ATOM    917  H21  DG A  37      93.080 100.891 202.978  1.00  0.00     0.174 HD
ATOM    918  H22  DG A  37      92.277 101.770 201.690  1.00  0.00     0.174 HD
ATOM    919  N1   DG A  37      90.539 100.092 201.170  1.00  0.00    -0.153 N 
ATOM    920  H1   DG A  37      90.549 100.944 200.631  1.00  0.00     0.187 HD
ATOM    921  C6   DG A  37      89.556  99.157 200.869  1.00  0.00     0.292 A 
ATOM    922  O6   DG A  37      88.741  99.392 199.968  1.00  0.00    -0.265 OA
ATOM    923  C5   DG A  37      89.655  98.009 201.703  1.00  0.00     0.173 A 
ATOM    924  N7   DG A  37      88.885  96.853 201.741  1.00  0.00    -0.234 NA
ATOM    925  C8   DG A  37      89.421  96.143 202.696  1.00  0.00     0.214 A 
ATOM    926  C2'  DG A  37      90.982  96.872 205.742  1.00  0.00     0.199 C 
ATOM    927  O2'  DG A  37      92.189  97.058 206.457  1.00  0.00    -0.388 OA
ATOM    928 'HO2  DG A  37      91.954  97.087 207.384  1.00  0.00     0.210 HD
ATOM    929  C3'  DG A  37      90.120  95.787 206.383  1.00  0.00     0.198 C 
ATOM    930  O3'  DG A  37      90.156  95.845 207.808  1.00  0.00    -0.279 OA
ATOM    931  P    DT A  38      88.811  96.161 208.633  1.00  0.00     0.408 P 
ATOM    932  OP1  DT A  38      89.222  96.570 210.002  1.00  0.00    -0.624 OA
ATOM    933  OP2  DT A  38      87.885  95.014 208.459  1.00  0.00    -0.624 OA
ATOM    934  O5'  DT A  38      88.183  97.423 207.889  1.00  0.00    -0.287 OA
ATOM    935  C5'  DT A  38      88.020  98.676 208.557  1.00  0.00     0.216 C 
ATOM    936  C4'  DT A  38      89.216  99.566 208.298  1.00  0.00     0.180 C 
ATOM    937  O4'  DT A  38      89.828  99.166 207.037  1.00  0.00    -0.353 OA
ATOM    938  C1'  DT A  38      90.021 100.300 206.214  1.00  0.00     0.264 C 
ATOM    939  N1   DT A  38      89.022 100.265 205.133  1.00  0.00    -0.280 N 
ATOM    940  C6   DT A  38      88.191  99.179 204.960  1.00  0.00     0.104 A 
ATOM    941  C2   DT A  38      88.942 101.361 204.289  1.00  0.00     0.331 A 
ATOM    942  O2   DT A  38      89.655 102.339 204.408  1.00  0.00    -0.246 OA
ATOM    943  N3   DT A  38      87.996 101.267 203.299  1.00  0.00    -0.275 N 
ATOM    944  H3   DT A  38      87.920 102.055 202.676  1.00  0.00     0.173 HD
ATOM    945  C4   DT A  38      87.140 100.215 203.068  1.00  0.00     0.250 A 
ATOM    946  O4   DT A  38      86.331 100.287 202.144  1.00  0.00    -0.268 OA
ATOM    947  C5   DT A  38      87.282  99.123 203.979  1.00  0.00     0.092 A 
ATOM    948  C2'  DT A  38      89.932 101.520 207.128  1.00  0.00     0.199 C 
ATOM    949  O2'  DT A  38      91.195 101.726 207.734  1.00  0.00    -0.388 OA
ATOM    950 'HO2  DT A  38      91.146 101.362 208.619  1.00  0.00     0.210 HD
ATOM    951  C3'  DT A  38      88.900 101.051 208.147  1.00  0.00     0.198 C 
ATOM    952  O3'  DT A  38      89.013 101.738 209.392  1.00  0.00    -0.279 OA
ATOM    953  P    DT A  39      89.064 103.347 209.416  1.00  0.00     0.408 P 
ATOM    954  OP1  DT A  39      90.486 103.741 209.587  1.00  0.00    -0.624 OA
ATOM    955  OP2  DT A  39      88.300 103.840 208.242  1.00  0.00    -0.624 OA
ATOM    956  O5'  DT A  39      88.289 103.745 210.752  1.00  0.00    -0.287 OA
ATOM    957  C5'  DT A  39      86.864 103.820 210.788  1.00  0.00     0.216 C 
ATOM    958  C4'  DT A  39      86.409 105.240 210.537  1.00  0.00     0.180 C 
ATOM    959  O4'  DT A  39      86.749 105.597 209.168  1.00  0.00    -0.353 OA
ATOM    960  C1'  DT A  39      85.642 106.215 208.538  1.00  0.00     0.264 C 
ATOM    961  N1   DT A  39      85.111 105.293 207.523  1.00  0.00    -0.280 N 
ATOM    962  C6   DT A  39      84.871 103.966 207.814  1.00  0.00     0.104 A 
ATOM    963  C2   DT A  39      84.863 105.799 206.261  1.00  0.00     0.331 A 
ATOM    964  O2   DT A  39      85.059 106.963 205.966  1.00  0.00    -0.246 OA
ATOM    965  N3   DT A  39      84.377 104.890 205.357  1.00  0.00    -0.275 N 
ATOM    966  H3   DT A  39      84.202 105.241 204.430  1.00  0.00     0.173 HD
ATOM    967  C4   DT A  39      84.119 103.555 205.579  1.00  0.00     0.250 A 
ATOM    968  O4   DT A  39      83.686 102.862 204.660  1.00  0.00    -0.268 OA
ATOM    969  C5   DT A  39      84.399 103.108 206.903  1.00  0.00     0.092 A 
ATOM    970  C2'  DT A  39      84.641 106.573 209.633  1.00  0.00     0.199 C 
ATOM    971  O2'  DT A  39      84.977 107.847 210.151  1.00  0.00    -0.388 OA
ATOM    972 'HO2  DT A  39      85.267 107.717 211.054  1.00  0.00     0.210 HD
ATOM    973  C3'  DT A  39      84.905 105.473 210.656  1.00  0.00     0.198 C 
ATOM    974  O3'  DT A  39      84.541 105.870 211.976  1.00  0.00    -0.279 OA
ATOM    975  P    DG A  40      82.991 106.096 212.342  1.00  0.00     0.408 P 
ATOM    976  OP1  DG A  40      82.224 104.989 211.724  1.00  0.00    -0.624 OA
ATOM    977  OP2  DG A  40      82.638 107.502 212.017  1.00  0.00    -0.624 OA
ATOM    978  O5'  DG A  40      82.939 105.911 213.923  1.00  0.00    -0.287 OA
ATOM    979  C5'  DG A  40      83.262 106.989 214.802  1.00  0.00     0.216 C 
ATOM    980  C4'  DG A  40      82.418 106.911 216.052  1.00  0.00     0.180 C 
ATOM    981  O4'  DG A  40      83.242 106.418 217.143  1.00  0.00    -0.353 OA
ATOM    982  C1'  DG A  40      82.930 107.120 218.334  1.00  0.00     0.262 C 
ATOM    983  N9   DG A  40      84.112 107.871 218.743  1.00  0.00    -0.293 N 
ATOM    984  C4   DG A  40      84.637 107.951 220.012  1.00  0.00     0.187 A 
ATOM    985  N3   DG A  40      84.147 107.344 221.113  1.00  0.00    -0.044 NA
ATOM    986  C2   DG A  40      84.870 107.610 222.186  1.00  0.00     0.703 A 
ATOM    987  N2   DG A  40      84.525 107.085 223.365  1.00  0.00    -0.233 N 
ATOM    988  H21  DG A  40      83.712 106.489 223.417  1.00  0.00     0.174 HD
ATOM    989  H22  DG A  40      85.067 107.285 224.193  1.00  0.00     0.174 HD
ATOM    990  N1   DG A  40      85.984 108.409 222.184  1.00  0.00    -0.153 N 
ATOM    991  H1   DG A  40      86.466 108.550 223.057  1.00  0.00     0.187 HD
ATOM    992  C6   DG A  40      86.508 109.045 221.065  1.00  0.00     0.292 A 
ATOM    993  O6   DG A  40      87.521 109.745 221.177  1.00  0.00    -0.265 OA
ATOM    994  C5   DG A  40      85.741 108.769 219.900  1.00  0.00     0.173 A 
ATOM    995  N7   DG A  40      85.910 109.195 218.588  1.00  0.00    -0.234 NA
ATOM    996  C8   DG A  40      84.922 108.639 217.942  1.00  0.00     0.214 A 
ATOM    997  C2'  DG A  40      81.712 107.998 218.045  1.00  0.00     0.199 C 
ATOM    998  O2'  DG A  40      80.538 107.255 218.319  1.00  0.00    -0.388 OA
ATOM    999 'HO2  DG A  40      80.077 107.152 217.485  1.00  0.00     0.210 HD
ATOM   1000  C3'  DG A  40      81.871 108.243 216.549  1.00  0.00     0.198 C 
ATOM   1001  O3'  DG A  40      80.634 108.565 215.915  1.00  0.00    -0.279 OA
ATOM   1002  P    DC A  41      80.372 110.061 215.382  1.00  0.00     0.408 P 
ATOM   1003  OP1  DC A  41      81.686 110.678 215.069  1.00  0.00    -0.624 OA
ATOM   1004  OP2  DC A  41      79.454 110.737 216.332  1.00  0.00    -0.624 OA
ATOM   1005  O5'  DC A  41      79.594 109.847 214.007  1.00  0.00    -0.287 OA
ATOM   1006  C5'  DC A  41      80.256 109.314 212.861  1.00  0.00     0.216 C 
ATOM   1007  C4'  DC A  41      79.296 109.233 211.696  1.00  0.00     0.180 C 
ATOM   1008  O4'  DC A  41      78.684 110.537 211.504  1.00  0.00    -0.353 OA
ATOM   1009  C1'  DC A  41      79.153 111.118 210.301  1.00  0.00     0.264 C 
ATOM   1010  N1   DC A  41      79.533 112.513 210.581  1.00  0.00    -0.278 N 
ATOM   1011  C6   DC A  41      80.079 112.859 211.786  1.00  0.00     0.102 A 
ATOM   1012  C2   DC A  41      79.325 113.483 209.596  1.00  0.00     0.352 A 
ATOM   1013  O2   DC A  41      78.831 113.142 208.512  1.00  0.00    -0.244 OA
ATOM   1014  N3   DC A  41      79.670 114.765 209.848  1.00  0.00    -0.177 NA
ATOM   1015  C4   DC A  41      80.202 115.092 211.027  1.00  0.00     0.128 A 
ATOM   1016  N4   DC A  41      80.527 116.368 211.229  1.00  0.00    -0.384 N 
ATOM   1017  H41  DC A  41      80.934 116.655 212.107  1.00  0.00     0.157 HD
ATOM   1018  H42  DC A  41      80.364 117.043 210.496  1.00  0.00     0.157 HD
ATOM   1019  C5   DC A  41      80.427 114.125 212.049  1.00  0.00     0.067 A 
ATOM   1020  C2'  DC A  41      80.308 110.255 209.794  1.00  0.00     0.199 C 
ATOM   1021  O2'  DC A  41      80.287 110.250 208.378  1.00  0.00    -0.388 OA
ATOM   1022 'HO2  DC A  41      79.368 110.197 208.110  1.00  0.00     0.210 HD
ATOM   1023  C3'  DC A  41      79.932 108.889 210.353  1.00  0.00     0.198 C 
ATOM   1024  O3'  DC A  41      79.024 108.189 209.505  1.00  0.00    -0.279 OA
ATOM   1025  P    DC A  42      78.897 106.589 209.614  1.00  0.00     0.408 P 
ATOM   1026  OP1  DC A  42      77.445 106.268 209.621  1.00  0.00    -0.624 OA
ATOM   1027  OP2  DC A  42      79.758 106.118 210.728  1.00  0.00    -0.624 OA
ATOM   1028  O5'  DC A  42      79.517 106.062 208.243  1.00  0.00    -0.287 OA
ATOM   1029  C5'  DC A  42      79.073 104.840 207.654  1.00  0.00     0.216 C 
ATOM   1030  C4'  DC A  42      80.250 104.068 207.104  1.00  0.00     0.180 C 
ATOM   1031  O4'  DC A  42      81.254 103.943 208.148  1.00  0.00    -0.353 OA
ATOM   1032  C1'  DC A  42      81.337 102.598 208.578  1.00  0.00     0.264 C 
ATOM   1033  N1   DC A  42      81.347 102.586 210.052  1.00  0.00    -0.278 N 
ATOM   1034  C6   DC A  42      82.500 102.318 210.736  1.00  0.00     0.102 A 
ATOM   1035  C2   DC A  42      80.159 102.853 210.747  1.00  0.00     0.352 A 
ATOM   1036  O2   DC A  42      79.126 103.090 210.105  1.00  0.00    -0.244 OA
ATOM   1037  N3   DC A  42      80.170 102.846 212.099  1.00  0.00    -0.177 NA
ATOM   1038  C4   DC A  42      81.301 102.587 212.756  1.00  0.00     0.128 A 
ATOM   1039  N4   DC A  42      81.262 102.601 214.087  1.00  0.00    -0.384 N 
ATOM   1040  H41  DC A  42      82.096 102.414 214.621  1.00  0.00     0.157 HD
ATOM   1041  H42  DC A  42      80.392 102.806 214.556  1.00  0.00     0.157 HD
ATOM   1042  C5   DC A  42      82.523 102.308 212.076  1.00  0.00     0.067 A 
ATOM   1043  C2'  DC A  42      80.167 101.841 207.951  1.00  0.00     0.199 C 
ATOM   1044  O2'  DC A  42      80.589 100.521 207.663  1.00  0.00    -0.388 OA
ATOM   1045 'HO2  DC A  42      80.781 100.494 206.726  1.00  0.00     0.210 HD
ATOM   1046  C3'  DC A  42      79.945 102.638 206.671  1.00  0.00     0.198 C 
ATOM   1047  O3'  DC A  42      80.804 102.215 205.614  1.00  0.00    -0.279 OA
ATOM   1048  P    DG A  43      80.323 102.357 204.083  1.00  0.00     0.408 P 
ATOM   1049  OP1  DG A  43      78.903 101.929 204.022  1.00  0.00    -0.624 OA
ATOM   1050  OP2  DG A  43      81.329 101.685 203.221  1.00  0.00    -0.624 OA
ATOM   1051  O5'  DG A  43      80.388 103.924 203.803  1.00  0.00    -0.287 OA
ATOM   1052  C5'  DG A  43      80.704 104.431 202.504  1.00  0.00     0.216 C 
ATOM   1053  C4'  DG A  43      79.485 104.385 201.611  1.00  0.00     0.180 C 
ATOM   1054  O4'  DG A  43      78.328 104.835 202.372  1.00  0.00    -0.353 OA
ATOM   1055  C1'  DG A  43      77.894 106.092 201.886  1.00  0.00     0.262 C 
ATOM   1056  N9   DG A  43      77.627 106.956 203.032  1.00  0.00    -0.293 N 
ATOM   1057  C4   DG A  43      78.484 107.238 204.070  1.00  0.00     0.187 A 
ATOM   1058  N3   DG A  43      79.740 106.765 204.214  1.00  0.00    -0.044 NA
ATOM   1059  C2   DG A  43      80.312 107.211 205.317  1.00  0.00     0.703 A 
ATOM   1060  N2   DG A  43      81.560 106.838 205.614  1.00  0.00    -0.233 N 
ATOM   1061  H21  DG A  43      82.049 106.215 204.988  1.00  0.00     0.174 HD
ATOM   1062  H22  DG A  43      82.003 107.168 206.457  1.00  0.00     0.174 HD
ATOM   1063  N1   DG A  43      79.705 108.056 206.210  1.00  0.00    -0.153 N 
ATOM   1064  H1   DG A  43      80.229 108.339 207.025  1.00  0.00     0.187 HD
ATOM   1065  C6   DG A  43      78.415 108.559 206.084  1.00  0.00     0.292 A 
ATOM   1066  O6   DG A  43      77.964 109.317 206.949  1.00  0.00    -0.265 OA
ATOM   1067  C5   DG A  43      77.784 108.086 204.903  1.00  0.00     0.173 A 
ATOM   1068  N7   DG A  43      76.515 108.335 204.399  1.00  0.00    -0.234 NA
ATOM   1069  C8   DG A  43      76.468 107.647 203.291  1.00  0.00     0.214 A 
ATOM   1070  C2'  DG A  43      78.981 106.612 200.949  1.00  0.00     0.199 C 
ATOM   1071  O2'  DG A  43      78.376 107.385 199.928  1.00  0.00    -0.388 OA
ATOM   1072 'HO2  DG A  43      79.006 107.438 199.205  1.00  0.00     0.210 HD
ATOM   1073  C3'  DG A  43      79.535 105.305 200.397  1.00  0.00     0.198 C 
ATOM   1074  O3'  DG A  43      78.746 104.792 199.324  1.00  0.00    -0.279 OA
ATOM   1075  P    DA A  44      79.321 104.816 197.821  1.00  0.00     0.408 P 
ATOM   1076  OP1  DA A  44      78.170 104.603 196.907  1.00  0.00    -0.624 OA
ATOM   1077  OP2  DA A  44      80.489 103.901 197.754  1.00  0.00    -0.624 OA
ATOM   1078  O5'  DA A  44      79.841 106.309 197.622  1.00  0.00    -0.287 OA
ATOM   1079  C5'  DA A  44      80.273 106.778 196.343  1.00  0.00     0.216 C 
ATOM   1080  C4'  DA A  44      81.161 107.994 196.500  1.00  0.00     0.180 C 
ATOM   1081  O4'  DA A  44      81.161 108.391 197.903  1.00  0.00    -0.353 OA
ATOM   1082  C1'  DA A  44      82.487 108.421 198.388  1.00  0.00     0.262 C 
ATOM   1083  N9   DA A  44      82.740 107.175 199.111  1.00  0.00    -0.294 N 
ATOM   1084  C4   DA A  44      83.192 107.046 200.402  1.00  0.00     0.167 A 
ATOM   1085  N3   DA A  44      83.499 108.031 201.265  1.00  0.00    -0.222 NA
ATOM   1086  C2   DA A  44      83.898 107.527 202.431  1.00  0.00     0.237 A 
ATOM   1087  N1   DA A  44      84.020 106.245 202.803  1.00  0.00    -0.222 NA
ATOM   1088  C6   DA A  44      83.709 105.282 201.909  1.00  0.00     0.155 A 
ATOM   1089  N6   DA A  44      83.837 104.007 202.271  1.00  0.00    -0.382 N 
ATOM   1090  H61  DA A  44      83.610 103.278 201.611  1.00  0.00     0.157 HD
ATOM   1091  H62  DA A  44      84.142 103.761 203.202  1.00  0.00     0.157 HD
ATOM   1092  C5   DA A  44      83.269 105.686 200.640  1.00  0.00     0.149 A 
ATOM   1093  N7   DA A  44      82.874 104.968 199.520  1.00  0.00    -0.236 NA
ATOM   1094  C8   DA A  44      82.573 105.894 198.644  1.00  0.00     0.214 A 
ATOM   1095  C2'  DA A  44      83.371 108.623 197.164  1.00  0.00     0.199 C 
ATOM   1096  O2'  DA A  44      83.359 109.993 196.810  1.00  0.00    -0.388 OA
ATOM   1097 'HO2  DA A  44      83.366 110.028 195.853  1.00  0.00     0.210 HD
ATOM   1098  C3'  DA A  44      82.630 107.781 196.133  1.00  0.00     0.198 C 
ATOM   1099  O3'  DA A  44      82.909 108.202 194.800  1.00  0.00    -0.279 OA
ATOM   1100  P    DA A  45      84.105 107.510 193.978  1.00  0.00     0.408 P 
ATOM   1101  OP1  DA A  45      84.334 108.328 192.759  1.00  0.00    -0.624 OA
ATOM   1102  OP2  DA A  45      83.799 106.063 193.842  1.00  0.00    -0.624 OA
ATOM   1103  O5'  DA A  45      85.376 107.664 194.929  1.00  0.00    -0.287 OA
ATOM   1104  C5'  DA A  45      86.018 108.927 195.100  1.00  0.00     0.216 C 
ATOM   1105  C4'  DA A  45      86.844 108.930 196.367  1.00  0.00     0.180 C 
ATOM   1106  O4'  DA A  45      86.078 108.333 197.446  1.00  0.00    -0.353 OA
ATOM   1107  C1'  DA A  45      86.958 107.701 198.359  1.00  0.00     0.262 C 
ATOM   1108  N9   DA A  45      86.523 106.315 198.535  1.00  0.00    -0.294 N 
ATOM   1109  C4   DA A  45      86.924 105.447 199.524  1.00  0.00     0.167 A 
ATOM   1110  N3   DA A  45      87.797 105.689 200.518  1.00  0.00    -0.222 NA
ATOM   1111  C2   DA A  45      87.940 104.613 201.293  1.00  0.00     0.237 A 
ATOM   1112  N1   DA A  45      87.352 103.412 201.193  1.00  0.00    -0.222 NA
ATOM   1113  C6   DA A  45      86.481 103.203 200.183  1.00  0.00     0.155 A 
ATOM   1114  N6   DA A  45      85.895 102.008 200.084  1.00  0.00    -0.382 N 
ATOM   1115  H61  DA A  45      85.241 101.829 199.337  1.00  0.00     0.157 HD
ATOM   1116  H62  DA A  45      86.100 101.284 200.758  1.00  0.00     0.157 HD
ATOM   1117  C5   DA A  45      86.243 104.266 199.291  1.00  0.00     0.149 A 
ATOM   1118  N7   DA A  45      85.429 104.383 198.172  1.00  0.00    -0.236 NA
ATOM   1119  C8   DA A  45      85.631 105.613 197.762  1.00  0.00     0.214 A 
ATOM   1120  C2'  DA A  45      88.381 107.842 197.812  1.00  0.00     0.199 C 
ATOM   1121  O2'  DA A  45      88.985 108.965 198.424  1.00  0.00    -0.388 OA
ATOM   1122 'HO2  DA A  45      89.284 109.541 197.719  1.00  0.00     0.210 HD
ATOM   1123  C3'  DA A  45      88.117 108.099 196.331  1.00  0.00     0.198 C 
ATOM   1124  O3'  DA A  45      89.183 108.805 195.701  1.00  0.00    -0.279 OA
ATOM   1125  P    DC A  46      90.429 107.992 195.087  1.00  0.00     0.408 P 
ATOM   1126  OP1  DC A  46      91.346 108.985 194.471  1.00  0.00    -0.624 OA
ATOM   1127  OP2  DC A  46      89.900 106.873 194.267  1.00  0.00    -0.624 OA
ATOM   1128  O5'  DC A  46      91.152 107.372 196.364  1.00  0.00    -0.287 OA
ATOM   1129  C5'  DC A  46      91.740 108.212 197.357  1.00  0.00     0.216 C 
ATOM   1130  C4'  DC A  46      92.487 107.377 198.370  1.00  0.00     0.180 C 
ATOM   1131  O4'  DC A  46      91.528 106.723 199.242  1.00  0.00    -0.353 OA
ATOM   1132  C1'  DC A  46      91.997 105.432 199.586  1.00  0.00     0.264 C 
ATOM   1133  N1   DC A  46      91.008 104.441 199.130  1.00  0.00    -0.278 N 
ATOM   1134  C6   DC A  46      90.212 104.690 198.047  1.00  0.00     0.102 A 
ATOM   1135  C2   DC A  46      90.894 103.236 199.826  1.00  0.00     0.352 A 
ATOM   1136  O2   DC A  46      91.629 103.035 200.801  1.00  0.00    -0.244 OA
ATOM   1137  N3   DC A  46      89.987 102.320 199.420  1.00  0.00    -0.177 NA
ATOM   1138  C4   DC A  46      89.211 102.575 198.365  1.00  0.00     0.128 A 
ATOM   1139  N4   DC A  46      88.329 101.645 198.004  1.00  0.00    -0.384 N 
ATOM   1140  H41  DC A  46      87.724 101.802 197.211  1.00  0.00     0.157 HD
ATOM   1141  H42  DC A  46      88.266 100.781 198.526  1.00  0.00     0.157 HD
ATOM   1142  C5   DC A  46      89.305 103.795 197.636  1.00  0.00     0.067 A 
ATOM   1143  C2'  DC A  46      93.379 105.252 198.956  1.00  0.00     0.199 C 
ATOM   1144  O2'  DC A  46      94.357 105.638 199.904  1.00  0.00    -0.388 OA
ATOM   1145 'HO2  DC A  46      95.105 105.049 199.793  1.00  0.00     0.210 HD
ATOM   1146  C3'  DC A  46      93.310 106.234 197.792  1.00  0.00     0.198 C 
ATOM   1147  O3'  DC A  46      94.598 106.678 197.374  1.00  0.00    -0.279 OA
ATOM   1148  P    DC A  47      95.432 105.816 196.303  1.00  0.00     0.408 P 
ATOM   1149  OP1  DC A  47      96.593 106.640 195.878  1.00  0.00    -0.624 OA
ATOM   1150  OP2  DC A  47      94.491 105.292 195.281  1.00  0.00    -0.624 OA
ATOM   1151  O5'  DC A  47      95.981 104.580 197.148  1.00  0.00    -0.287 OA
ATOM   1152  C5'  DC A  47      97.076 104.735 198.050  1.00  0.00     0.216 C 
ATOM   1153  C4'  DC A  47      97.357 103.431 198.759  1.00  0.00     0.180 C 
ATOM   1154  O4'  DC A  47      96.147 102.985 199.430  1.00  0.00    -0.353 OA
ATOM   1155  C1'  DC A  47      96.056 101.572 199.362  1.00  0.00     0.264 C 
ATOM   1156  N1   DC A  47      94.828 101.220 198.630  1.00  0.00    -0.278 N 
ATOM   1157  C6   DC A  47      94.302 102.067 197.695  1.00  0.00     0.102 A 
ATOM   1158  C2   DC A  47      94.202 100.000 198.907  1.00  0.00     0.352 A 
ATOM   1159  O2   DC A  47      94.699  99.249 199.758  1.00  0.00    -0.244 OA
ATOM   1160  N3   DC A  47      93.075  99.670 198.240  1.00  0.00    -0.177 NA
ATOM   1161  C4   DC A  47      92.570 100.505 197.331  1.00  0.00     0.128 A 
ATOM   1162  N4   DC A  47      91.455 100.137 196.701  1.00  0.00    -0.384 N 
ATOM   1163  H41  DC A  47      91.040 100.740 196.006  1.00  0.00     0.157 HD
ATOM   1164  H42  DC A  47      91.025  99.249 196.920  1.00  0.00     0.157 HD
ATOM   1165  C5   DC A  47      93.185 101.754 197.028  1.00  0.00     0.067 A 
ATOM   1166  C2'  DC A  47      97.333 101.056 198.698  1.00  0.00     0.199 C 
ATOM   1167  O2'  DC A  47      98.285 100.783 199.709  1.00  0.00    -0.388 OA
ATOM   1168 'HO2  DC A  47      99.098 100.535 199.267  1.00  0.00     0.210 HD
ATOM   1169  C3'  DC A  47      97.740 102.264 197.861  1.00  0.00     0.198 C 
ATOM   1170  O3'  DC A  47      99.132 102.272 197.554  1.00  0.00    -0.279 OA
ATOM   1171  P    DT A  48      99.640 101.732 196.126  1.00  0.00     0.408 P 
ATOM   1172  OP1  DT A  48     101.050 102.170 195.965  1.00  0.00    -0.624 OA
ATOM   1173  OP2  DT A  48      98.635 102.105 195.098  1.00  0.00    -0.624 OA
ATOM   1174  O5'  DT A  48      99.625 100.146 196.285  1.00  0.00    -0.287 OA
ATOM   1175  C5'  DT A  48     100.417  99.500 197.281  1.00  0.00     0.216 C 
ATOM   1176  C4'  DT A  48      99.828  98.150 197.622  1.00  0.00     0.180 C 
ATOM   1177  O4'  DT A  48      98.390  98.261 197.713  1.00  0.00    -0.353 OA
ATOM   1178  C1'  DT A  48      97.810  97.000 197.441  1.00  0.00     0.264 C 
ATOM   1179  N1   DT A  48      96.660  97.202 196.548  1.00  0.00    -0.280 N 
ATOM   1180  C6   DT A  48      96.511  98.365 195.827  1.00  0.00     0.104 A 
ATOM   1181  C2   DT A  48      95.730  96.183 196.454  1.00  0.00     0.331 A 
ATOM   1182  O2   DT A  48      95.822  95.141 197.078  1.00  0.00    -0.246 OA
ATOM   1183  N3   DT A  48      94.685  96.428 195.602  1.00  0.00    -0.275 N 
ATOM   1184  H3   DT A  48      93.995  95.696 195.512  1.00  0.00     0.173 HD
ATOM   1185  C4   DT A  48      94.474  97.562 194.853  1.00  0.00     0.250 A 
ATOM   1186  O4   DT A  48      93.477  97.634 194.134  1.00  0.00    -0.268 OA
ATOM   1187  C5   DT A  48      95.477  98.570 195.006  1.00  0.00     0.092 A 
ATOM   1188  C2'  DT A  48      98.892  96.087 196.850  1.00  0.00     0.199 C 
ATOM   1189  O2'  DT A  48      99.252  95.138 197.833  1.00  0.00    -0.388 OA
ATOM   1190 'HO2  DT A  48     100.088  95.419 198.212  1.00  0.00     0.210 HD
ATOM   1191  C3'  DT A  48     100.039  97.063 196.580  1.00  0.00     0.198 C 
ATOM   1192  O3'  DT A  48     101.319  96.456 196.735  1.00  0.00    -0.279 OA
ATOM   1193  P    DC A  49     101.967  95.625 195.518  1.00  0.00     0.408 P 
ATOM   1194  OP1  DC A  49     103.442  95.747 195.643  1.00  0.00    -0.624 OA
ATOM   1195  OP2  DC A  49     101.303  96.034 194.254  1.00  0.00    -0.624 OA
ATOM   1196  O5'  DC A  49     101.566  94.113 195.824  1.00  0.00    -0.287 OA
ATOM   1197  C5'  DC A  49     101.862  93.514 197.085  1.00  0.00     0.216 C 
ATOM   1198  C4'  DC A  49     101.220  92.150 197.175  1.00  0.00     0.180 C 
ATOM   1199  O4'  DC A  49     101.254  91.718 198.565  1.00  0.00    -0.353 OA
ATOM   1200  C1'  DC A  49      99.940  91.474 199.021  1.00  0.00     0.264 C 
ATOM   1201  N1   DC A  49      99.846  91.901 200.427  1.00  0.00    -0.278 N 
ATOM   1202  C6   DC A  49      99.445  91.024 201.396  1.00  0.00     0.102 A 
ATOM   1203  C2   DC A  49     100.173  93.221 200.762  1.00  0.00     0.352 A 
ATOM   1204  O2   DC A  49     100.542  93.996 199.870  1.00  0.00    -0.244 OA
ATOM   1205  N3   DC A  49     100.080  93.617 202.053  1.00  0.00    -0.177 NA
ATOM   1206  C4   DC A  49      99.684  92.754 202.988  1.00  0.00     0.128 A 
ATOM   1207  N4   DC A  49      99.607  93.192 204.245  1.00  0.00    -0.384 N 
ATOM   1208  H41  DC A  49      99.312  92.572 204.983  1.00  0.00     0.157 HD
ATOM   1209  H42  DC A  49      99.847  94.150 204.451  1.00  0.00     0.157 HD
ATOM   1210  C5   DC A  49      99.350  91.403 202.677  1.00  0.00     0.067 A 
ATOM   1211  C2'  DC A  49      99.002  92.222 198.077  1.00  0.00     0.199 C 
ATOM   1212  O2'  DC A  49      97.767  91.534 198.031  1.00  0.00    -0.388 OA
ATOM   1213 'HO2  DC A  49      97.681  91.189 197.142  1.00  0.00     0.210 HD
ATOM   1214  C3'  DC A  49      99.752  92.100 196.755  1.00  0.00     0.198 C 
ATOM   1215  O3'  DC A  49      99.448  90.885 196.072  1.00  0.00    -0.279 OA
ATOM   1216  P    DT A  50      99.678  90.782 194.483  1.00  0.00     0.408 P 
ATOM   1217  OP1  DT A  50      99.732  89.338 194.137  1.00  0.00    -0.624 OA
ATOM   1218  OP2  DT A  50     100.807  91.667 194.101  1.00  0.00    -0.624 OA
ATOM   1219  O5'  DT A  50      98.342  91.385 193.858  1.00  0.00    -0.287 OA
ATOM   1220  C5'  DT A  50      97.056  90.918 194.270  1.00  0.00     0.216 C 
ATOM   1221  C4'  DT A  50      96.241  90.498 193.065  1.00  0.00     0.180 C 
ATOM   1222  O4'  DT A  50      95.979  91.673 192.248  1.00  0.00    -0.353 OA
ATOM   1223  C1'  DT A  50      96.611  91.533 190.989  1.00  0.00     0.264 C 
ATOM   1224  N1   DT A  50      97.203  92.826 190.621  1.00  0.00    -0.280 N 
ATOM   1225  C6   DT A  50      97.982  93.531 191.511  1.00  0.00     0.104 A 
ATOM   1226  C2   DT A  50      96.951  93.313 189.351  1.00  0.00     0.331 A 
ATOM   1227  O2   DT A  50      96.267  92.719 188.537  1.00  0.00    -0.246 OA
ATOM   1228  N3   DT A  50      97.532  94.523 189.070  1.00  0.00    -0.275 N 
ATOM   1229  H3   DT A  50      97.368  94.901 188.149  1.00  0.00     0.173 HD
ATOM   1230  C4   DT A  50      98.319  95.280 189.908  1.00  0.00     0.250 A 
ATOM   1231  O4   DT A  50      98.766  96.355 189.509  1.00  0.00    -0.268 OA
ATOM   1232  C5   DT A  50      98.532  94.709 191.201  1.00  0.00     0.092 A 
ATOM   1233  C2'  DT A  50      97.625  90.400 191.126  1.00  0.00     0.199 C 
ATOM   1234  O2'  DT A  50      97.762  89.757 189.873  1.00  0.00    -0.388 OA
ATOM   1235 'HO2  DT A  50      97.291  88.926 189.939  1.00  0.00     0.210 HD
ATOM   1236  C3'  DT A  50      96.921  89.499 192.133  1.00  0.00     0.198 C 
ATOM   1237  O3'  DT A  50      95.971  88.639 191.509  1.00  0.00    -0.279 OA
ATOM   1238  P    DT A  51      95.512  87.284 192.244  1.00  0.00     0.408 P 
ATOM   1239  OP1  DT A  51      95.591  87.516 193.708  1.00  0.00    -0.624 OA
ATOM   1240  OP2  DT A  51      96.260  86.153 191.637  1.00  0.00    -0.624 OA
ATOM   1241  O5'  DT A  51      93.974  87.142 191.850  1.00  0.00    -0.287 OA
ATOM   1242  C5'  DT A  51      93.323  85.873 191.870  1.00  0.00     0.216 C 
ATOM   1243  C4'  DT A  51      92.143  85.882 190.928  1.00  0.00     0.180 C 
ATOM   1244  O4'  DT A  51      91.153  86.826 191.428  1.00  0.00    -0.353 OA
ATOM   1245  C1'  DT A  51      90.648  87.602 190.356  1.00  0.00     0.264 C 
ATOM   1246  N1   DT A  51      91.136  88.981 190.506  1.00  0.00    -0.280 N 
ATOM   1247  C6   DT A  51      91.961  89.339 191.548  1.00  0.00     0.104 A 
ATOM   1248  C2   DT A  51      90.738  89.911 189.561  1.00  0.00     0.331 A 
ATOM   1249  O2   DT A  51      90.018  89.634 188.621  1.00  0.00    -0.246 OA
ATOM   1250  N3   DT A  51      91.220  91.178 189.757  1.00  0.00    -0.275 N 
ATOM   1251  H3   DT A  51      90.940  91.868 189.076  1.00  0.00     0.173 HD
ATOM   1252  C4   DT A  51      92.045  91.604 190.772  1.00  0.00     0.250 A 
ATOM   1253  O4   DT A  51      92.377  92.788 190.823  1.00  0.00    -0.268 OA
ATOM   1254  C5   DT A  51      92.416  90.586 191.703  1.00  0.00     0.092 A 
ATOM   1255  C2'  DT A  51      91.107  86.928 189.066  1.00  0.00     0.199 C 
ATOM   1256  O2'  DT A  51      90.187  85.908 188.729  1.00  0.00    -0.388 OA
ATOM   1257 'HO2  DT A  51      90.134  85.892 187.773  1.00  0.00     0.210 HD
ATOM   1258  C3'  DT A  51      92.445  86.350 189.510  1.00  0.00     0.198 C 
ATOM   1259  O3'  DT A  51      92.881  85.277 188.681  1.00  0.00    -0.279 OA
ATOM   1260  P    DC A  52      93.919  85.561 187.486  1.00  0.00     0.408 P 
ATOM   1261  OP1  DC A  52      94.454  84.250 187.037  1.00  0.00    -0.624 OA
ATOM   1262  OP2  DC A  52      94.858  86.628 187.915  1.00  0.00    -0.624 OA
ATOM   1263  O5'  DC A  52      93.010  86.151 186.316  1.00  0.00    -0.287 OA
ATOM   1264  C5'  DC A  52      92.066  85.328 185.632  1.00  0.00     0.216 C 
ATOM   1265  C4'  DC A  52      91.224  86.166 184.696  1.00  0.00     0.180 C 
ATOM   1266  O4'  DC A  52      90.513  87.175 185.470  1.00  0.00    -0.353 OA
ATOM   1267  C1'  DC A  52      90.560  88.420 184.792  1.00  0.00     0.264 C 
ATOM   1268  N1   DC A  52      91.426  89.334 185.558  1.00  0.00    -0.278 N 
ATOM   1269  C6   DC A  52      92.292  88.850 186.498  1.00  0.00     0.102 A 
ATOM   1270  C2   DC A  52      91.348  90.709 185.314  1.00  0.00     0.352 A 
ATOM   1271  O2   DC A  52      90.559  91.125 184.453  1.00  0.00    -0.244 OA
ATOM   1272  N3   DC A  52      92.135  91.550 186.022  1.00  0.00    -0.177 NA
ATOM   1273  C4   DC A  52      92.970  91.066 186.943  1.00  0.00     0.128 A 
ATOM   1274  N4   DC A  52      93.721  91.932 187.621  1.00  0.00    -0.384 N 
ATOM   1275  H41  DC A  52      94.367  91.608 188.328  1.00  0.00     0.157 HD
ATOM   1276  H42  DC A  52      93.651  92.921 187.427  1.00  0.00     0.157 HD
ATOM   1277  C5   DC A  52      93.072  89.671 187.208  1.00  0.00     0.067 A 
ATOM   1278  C2'  DC A  52      91.062  88.130 183.380  1.00  0.00     0.199 C 
ATOM   1279  O2'  DC A  52      89.963  87.739 182.576  1.00  0.00    -0.388 OA
ATOM   1280 'HO2  DC A  52      89.817  86.804 182.726  1.00  0.00     0.210 HD
ATOM   1281  C3'  DC A  52      91.997  86.960 183.650  1.00  0.00     0.198 C 
ATOM   1282  O3'  DC A  52      92.258  86.181 182.484  1.00  0.00    -0.279 OA
ATOM   1283  P    DC A  53      93.650  86.362 181.697  1.00  0.00     0.408 P 
ATOM   1284  OP1  DC A  53      93.741  85.266 180.700  1.00  0.00    -0.624 OA
ATOM   1285  OP2  DC A  53      94.737  86.542 182.694  1.00  0.00    -0.624 OA
ATOM   1286  O5'  DC A  53      93.472  87.736 180.908  1.00  0.00    -0.287 OA
ATOM   1287  C5'  DC A  53      92.427  87.904 179.951  1.00  0.00     0.216 C 
ATOM   1288  C4'  DC A  53      92.299  89.360 179.569  1.00  0.00     0.180 C 
ATOM   1289  O4'  DC A  53      91.845  90.111 180.729  1.00  0.00    -0.353 OA
ATOM   1290  C1'  DC A  53      92.510  91.361 180.780  1.00  0.00     0.264 C 
ATOM   1291  N1   DC A  53      93.341  91.401 181.995  1.00  0.00    -0.278 N 
ATOM   1292  C6   DC A  53      93.691  90.251 182.646  1.00  0.00     0.102 A 
ATOM   1293  C2   DC A  53      93.766  92.640 182.478  1.00  0.00     0.352 A 
ATOM   1294  O2   DC A  53      93.441  93.668 181.867  1.00  0.00    -0.244 OA
ATOM   1295  N3   DC A  53      94.522  92.690 183.597  1.00  0.00    -0.177 NA
ATOM   1296  C4   DC A  53      94.853  91.564 184.228  1.00  0.00     0.128 A 
ATOM   1297  N4   DC A  53      95.596  91.665 185.330  1.00  0.00    -0.384 N 
ATOM   1298  H41  DC A  53      95.871  90.840 185.843  1.00  0.00     0.157 HD
ATOM   1299  H42  DC A  53      95.880  92.578 185.656  1.00  0.00     0.157 HD
ATOM   1300  C5   DC A  53      94.436  90.285 183.759  1.00  0.00     0.067 A 
ATOM   1301  C2'  DC A  53      93.313  91.505 179.488  1.00  0.00     0.199 C 
ATOM   1302  O2'  DC A  53      92.491  92.108 178.506  1.00  0.00    -0.388 OA
ATOM   1303 'HO2  DC A  53      92.509  91.535 177.738  1.00  0.00     0.210 HD
ATOM   1304  C3'  DC A  53      93.594  90.046 179.153  1.00  0.00     0.198 C 
ATOM   1305  O3'  DC A  53      93.876  89.850 177.770  1.00  0.00    -0.279 OA
ATOM   1306  P    DC A  54      95.391  89.963 177.239  1.00  0.00     0.408 P 
ATOM   1307  OP1  DC A  54      95.430  89.362 175.883  1.00  0.00    -0.624 OA
ATOM   1308  OP2  DC A  54      96.303  89.452 178.294  1.00  0.00    -0.624 OA
ATOM   1309  O5'  DC A  54      95.635  91.532 177.096  1.00  0.00    -0.287 OA
ATOM   1310  C5'  DC A  54      94.907  92.306 176.145  1.00  0.00     0.216 C 
ATOM   1311  C4'  DC A  54      95.396  93.737 176.153  1.00  0.00     0.180 C 
ATOM   1312  O4'  DC A  54      95.002  94.359 177.409  1.00  0.00    -0.353 OA
ATOM   1313  C1'  DC A  54      96.072  95.139 177.913  1.00  0.00     0.264 C 
ATOM   1314  N1   DC A  54      96.578  94.499 179.139  1.00  0.00    -0.278 N 
ATOM   1315  C6   DC A  54      96.356  93.170 179.377  1.00  0.00     0.102 A 
ATOM   1316  C2   DC A  54      97.287  95.270 180.062  1.00  0.00     0.352 A 
ATOM   1317  O2   DC A  54      97.483  96.469 179.819  1.00  0.00    -0.244 OA
ATOM   1318  N3   DC A  54      97.743  94.692 181.195  1.00  0.00    -0.177 NA
ATOM   1319  C4   DC A  54      97.514  93.397 181.421  1.00  0.00     0.128 A 
ATOM   1320  N4   DC A  54      97.977  92.872 182.555  1.00  0.00    -0.384 N 
ATOM   1321  H41  DC A  54      97.827  91.896 182.766  1.00  0.00     0.157 HD
ATOM   1322  H42  DC A  54      98.480  93.459 183.207  1.00  0.00     0.157 HD
ATOM   1323  C5   DC A  54      96.799  92.584 180.496  1.00  0.00     0.067 A 
ATOM   1324  C2'  DC A  54      97.111  95.245 176.798  1.00  0.00     0.199 C 
ATOM   1325  O2'  DC A  54      96.766  96.332 175.960  1.00  0.00    -0.388 OA
ATOM   1326 'HO2  DC A  54      96.774  96.002 175.061  1.00  0.00     0.210 HD
ATOM   1327  C3'  DC A  54      96.908  93.913 176.089  1.00  0.00     0.198 C 
ATOM   1328  O3'  DC A  54      97.380  93.934 174.746  1.00  0.00    -0.279 OA
ATOM   1329  P    DC A  55      98.904  93.528 174.428  1.00  0.00     0.408 P 
ATOM   1330  OP1  DC A  55      99.061  93.511 172.952  1.00  0.00    -0.624 OA
ATOM   1331  OP2  DC A  55      99.244  92.316 175.216  1.00  0.00    -0.624 OA
ATOM   1332  O5'  DC A  55      99.756  94.745 175.006  1.00  0.00    -0.287 OA
ATOM   1333  C5'  DC A  55      99.612  96.061 174.473  1.00  0.00     0.216 C 
ATOM   1334  C4'  DC A  55     100.454  97.038 175.261  1.00  0.00     0.180 C 
ATOM   1335  O4'  DC A  55      99.922  97.139 176.610  1.00  0.00    -0.353 OA
ATOM   1336  C1'  DC A  55     100.988  97.249 177.538  1.00  0.00     0.264 C 
ATOM   1337  N1   DC A  55     100.950  96.077 178.430  1.00  0.00    -0.278 N 
ATOM   1338  C6   DC A  55     100.385  94.902 178.019  1.00  0.00     0.102 A 
ATOM   1339  C2   DC A  55     101.497  96.186 179.710  1.00  0.00     0.352 A 
ATOM   1340  O2   DC A  55     102.012  97.259 180.056  1.00  0.00    -0.244 OA
ATOM   1341  N3   DC A  55     101.456  95.121 180.540  1.00  0.00    -0.177 NA
ATOM   1342  C4   DC A  55     100.895  93.982 180.133  1.00  0.00     0.128 A 
ATOM   1343  N4   DC A  55     100.871  92.961 180.990  1.00  0.00    -0.384 N 
ATOM   1344  H41  DC A  55     100.457  92.080 180.726  1.00  0.00     0.157 HD
ATOM   1345  H42  DC A  55     101.272  93.077 181.911  1.00  0.00     0.157 HD
ATOM   1346  C5   DC A  55     100.333  93.839 178.833  1.00  0.00     0.067 A 
ATOM   1347  C2'  DC A  55     102.284  97.372 176.737  1.00  0.00     0.199 C 
ATOM   1348  O2'  DC A  55     102.535  98.743 176.490  1.00  0.00    -0.388 OA
ATOM   1349 'HO2  DC A  55     102.358  98.895 175.561  1.00  0.00     0.210 HD
ATOM   1350  C3'  DC A  55     101.911  96.641 175.453  1.00  0.00     0.198 C 
ATOM   1351  O3'  DC A  55     102.714  97.041 174.346  1.00  0.00    -0.279 OA
ATOM   1352  P    DC A  56     104.089  96.268 174.034  1.00  0.00     0.408 P 
ATOM   1353  OP1  DC A  56     104.623  96.805 172.758  1.00  0.00    -0.624 OA
ATOM   1354  OP2  DC A  56     103.854  94.808 174.176  1.00  0.00    -0.624 OA
ATOM   1355  O5'  DC A  56     105.065  96.725 175.210  1.00  0.00    -0.287 OA
ATOM   1356  C5'  DC A  56     105.409  98.099 175.388  1.00  0.00     0.216 C 
ATOM   1357  C4'  DC A  56     106.406  98.244 176.514  1.00  0.00     0.180 C 
ATOM   1358  O4'  DC A  56     105.700  98.124 177.778  1.00  0.00    -0.353 OA
ATOM   1359  C1'  DC A  56     106.487  97.390 178.698  1.00  0.00     0.264 C 
ATOM   1360  N1   DC A  56     105.762  96.158 179.048  1.00  0.00    -0.278 N 
ATOM   1361  C6   DC A  56     104.981  95.518 178.127  1.00  0.00     0.102 A 
ATOM   1362  C2   DC A  56     105.886  95.649 180.342  1.00  0.00     0.352 A 
ATOM   1363  O2   DC A  56     106.600  96.249 181.160  1.00  0.00    -0.244 OA
ATOM   1364  N3   DC A  56     105.228  94.517 180.673  1.00  0.00    -0.177 NA
ATOM   1365  C4   DC A  56     104.468  93.900 179.769  1.00  0.00     0.128 A 
ATOM   1366  N4   DC A  56     103.837  92.787 180.143  1.00  0.00    -0.384 N 
ATOM   1367  H41  DC A  56     103.251  92.287 179.491  1.00  0.00     0.157 HD
ATOM   1368  H42  DC A  56     103.952  92.447 181.088  1.00  0.00     0.157 HD
ATOM   1369  C5   DC A  56     104.320  94.396 178.441  1.00  0.00     0.067 A 
ATOM   1370  C2'  DC A  56     107.848  97.139 178.050  1.00  0.00     0.198 C 
ATOM   1371  O2'  DC A  56     108.717  98.204 178.393  1.00  0.00    -0.388 OA
ATOM   1372 'HO2  DC A  56     109.263  98.377 177.625  1.00  0.00     0.210 HD
ATOM   1373  C3'  DC A  56     107.488  97.174 176.569  1.00  0.00     0.182 C 
ATOM   1374  O3'  DC A  56     108.611  97.495 175.742  1.00  0.00    -0.390 OA
ATOM   1375 'HO3  DC A  56     108.276  97.653 174.856  1.00  0.00     0.210 HD
ENDROOT
TORSDOF 434
ENDMDL
MODEL 2
REMARK VINA RESULT:     -21.7     10.012     39.768
REMARK  0 active torsions:
REMARK  status: ('A' for Active; 'I' for Inactive)
REMARK       I    between atoms: O5'_2  and  C5'_3 
REMARK       I    between atoms: C5'_3  and  C4'_4 
REMARK       I    between atoms: C1'_6  and  N9_7 
REMARK       I    between atoms: C2_10  and  N2_11 
REMARK       I    between atoms: C2'_21  and  O2'_22 
REMARK       I    between atoms: C3'_24  and  O3'_25 
REMARK       I    between atoms: O3'_25  and  P_26 
REMARK       I    between atoms: P_26  and  O5'_29 
REMARK       I    between atoms: O5'_29  and  C5'_30 
REMARK       I    between atoms: C5'_30  and  C4'_31 
REMARK       I    between atoms: C1'_33  and  N9_34 
REMARK       I    between atoms: C2_37  and  N2_38 
REMARK       I    between atoms: C2'_48  and  O2'_49 
REMARK       I    between atoms: C3'_51  and  O3'_52 
REMARK       I    between atoms: O3'_52  and  P_53 
REMARK       I    between atoms: P_53  and  O5'_56 
REMARK       I    between atoms: O5'_56  and  C5'_57 
REMARK       I    between atoms: C5'_57  and  C4'_58 
REMARK       I    between atoms: C1'_60  and  N9_61 
REMARK       I    between atoms: C2_64  and  N2_65 
REMARK       I    between atoms: C2'_75  and  O2'_76 
REMARK       I    between atoms: C3'_78  and  O3'_79 
REMARK       I    between atoms: O3'_79  and  P_80 
REMARK       I    between atoms: P_80  and  O5'_83 
REMARK       I    between atoms: O5'_83  and  C5'_84 
REMARK       I    between atoms: C5'_84  and  C4'_85 
REMARK       I    between atoms: C1'_87  and  N9_88 
REMARK       I    between atoms: C2_91  and  N2_92 
REMARK       I    between atoms: C2'_102  and  O2'_103 
REMARK       I    between atoms: C3'_105  and  O3'_106 
REMARK       I    between atoms: O3'_106  and  P_107 
REMARK       I    between atoms: P_107  and  O5'_110 
REMARK       I    between atoms: O5'_110  and  C5'_111 
REMARK       I    between atoms: C5'_111  and  C4'_112 
REMARK       I    between atoms: C1'_114  and  N9_115 
REMARK       I    between atoms: C2_118  and  N2_119 
REMARK       I    between atoms: C2'_129  and  O2'_130 
REMARK       I    between atoms: C3'_132  and  O3'_133 
REMARK       I    between atoms: O3'_133  and  P_134 
REMARK       I    between atoms: P_134  and  O5'_137 
REMARK       I    between atoms: O5'_137  and  C5'_138 
REMARK       I    between atoms: C5'_138  and  C4'_139 
REMARK       I    between atoms: C1'_141  and  N9_142 
REMARK       I    between atoms: C6_147  and  N6_148 
REMARK       I    between atoms: C2'_154  and  O2'_155 
REMARK       I    between atoms: C3'_157  and  O3'_158 
REMARK       I    between atoms: O3'_158  and  P_159 
REMARK       I    between atoms: P_159  and  O5'_162 
REMARK       I    between atoms: O5'_162  and  C5'_163 
REMARK       I    between atoms: C5'_163  and  C4'_164 
REMARK       I    between atoms: C1'_166  and  N9_167 
REMARK       I    between atoms: C2_170  and  N2_171 
REMARK       I    between atoms: C2'_181  and  O2'_182 
REMARK       I    between atoms: C3'_184  and  O3'_185 
REMARK       I    between atoms: O3'_185  and  P_186 
REMARK       I    between atoms: P_186  and  O5'_189 
REMARK       I    between atoms: O5'_189  and  C5'_190 
REMARK       I    between atoms: C5'_190  and  C4'_191 
REMARK       I    between atoms: C1'_193  and  N1_194 
REMARK       I    between atoms: C2'_203  and  O2'_204 
REMARK       I    between atoms: C3'_206  and  O3'_207 
REMARK       I    between atoms: O3'_207  and  P_208 
REMARK       I    between atoms: P_208  and  O5'_211 
REMARK       I    between atoms: O5'_211  and  C5'_212 
REMARK       I    between atoms: C5'_212  and  C4'_213 
REMARK       I    between atoms: C1'_215  and  N9_216 
REMARK       I    between atoms: C2_219  and  N2_220 
REMARK       I    between atoms: C2'_230  and  O2'_231 
REMARK       I    between atoms: C3'_233  and  O3'_234 
REMARK       I    between atoms: O3'_234  and  P_235 
REMARK       I    between atoms: P_235  and  O5'_238 
REMARK       I    between atoms: O5'_238  and  C5'_239 
REMARK       I    between atoms: C5'_239  and  C4'_240 
REMARK       I    between atoms: C1'_242  and  N9_243 
REMARK       I    between atoms: C2_246  and  N2_247 
REMARK       I    between atoms: C2'_257  and  O2'_258 
REMARK       I    between atoms: C3'_260  and  O3'_261 
REMARK       I    between atoms: O3'_261  and  P_262 
REMARK       I    between atoms: P_262  and  O5'_265 
REMARK       I    between atoms: O5'_265  and  C5'_266 
REMARK       I    between atoms: C5'_266  and  C4'_267 
REMARK       I    between atoms: C1'_269  and  N1_270 
REMARK       I    between atoms: C2'_279  and  O2'_280 
REMARK       I    between atoms: C3'_282  and  O3'_283 
REMARK       I    between atoms: O3'_283  and  P_284 
REMARK       I    between atoms: P_284  and  O5'_287 
REMARK       I    between atoms: O5'_287  and  C5'_288 
REMARK       I    between atoms: C5'_288  and  C4'_289 
REMARK       I    between atoms: C1'_291  and  N9_292 
REMARK       I    between atoms: C2_295  and  N2_296 
REMARK       I    between atoms: C2'_306  and  O2'_307 
REMARK       I    between atoms: C3'_309  and  O3'_310 
REMARK       I    between atoms: O3'_310  and  P_311 
REMARK       I    between atoms: P_311  and  O5'_314 
REMARK       I    between atoms: O5'_314  and  C5'_315 
REMARK       I    between atoms: C5'_315  and  C4'_316 
REMARK       I    between atoms: C1'_318  and  N9_319 
REMARK       I    between atoms: C2_322  and  N2_323 
REMARK       I    between atoms: C2'_333  and  O2'_334 
REMARK       I    between atoms: C3'_336  and  O3'_337 
REMARK       I    between atoms: O3'_337  and  P_338 
REMARK       I    between atoms: P_338  and  O5'_341 
REMARK       I    between atoms: O5'_341  and  C5'_342 
REMARK       I    between atoms: C5'_342  and  C4'_343 
REMARK       I    between atoms: C1'_345  and  N9_346 
REMARK       I    between atoms: C6_351  and  N6_352 
REMARK       I    between atoms: C2'_358  and  O2'_359 
REMARK       I    between atoms: C3'_361  and  O3'_362 
REMARK       I    between atoms: O3'_362  and  P_363 
REMARK       I    between atoms: P_363  and  O5'_366 
REMARK       I    between atoms: O5'_366  and  C5'_367 
REMARK       I    between atoms: C5'_367  and  C4'_368 
REMARK       I    between atoms: C1'_370  and  N9_371 
REMARK       I    between atoms: C6_376  and  N6_377 
REMARK       I    between atoms: C2'_383  and  O2'_384 
REMARK       I    between atoms: C3'_386  and  O3'_387 
REMARK       I    between atoms: O3'_387  and  P_388 
REMARK       I    between atoms: P_388  and  O5'_391 
REMARK       I    between atoms: O5'_391  and  C5'_392 
REMARK       I    between atoms: C5'_392  and  C4'_393 
REMARK       I    between atoms: C1'_395  and  N1_396 
REMARK       I    between atoms: C2'_405  and  O2'_406 
REMARK       I    between atoms: C3'_408  and  O3'_409 
REMARK       I    between atoms: O3'_409  and  P_410 
REMARK       I    between atoms: P_410  and  O5'_413 
REMARK       I    between atoms: O5'_413  and  C5'_414 
REMARK       I    between atoms: C5'_414  and  C4'_415 
REMARK       I    between atoms: C1'_417  and  N9_418 
REMARK       I    between atoms: C2_421  and  N2_422 
REMARK       I    between atoms: C2'_432  and  O2'_433 
REMARK       I    between atoms: C3'_435  and  O3'_436 
REMARK       I    between atoms: O3'_436  and  P_437 
REMARK       I    between atoms: P_437  and  O5'_440 
REMARK       I    between atoms: O5'_440  and  C5'_441 
REMARK       I    between atoms: C5'_441  and  C4'_442 
REMARK       I    between atoms: C1'_444  and  N9_445 
REMARK       I    between atoms: C2_448  and  N2_449 
REMARK       I    between atoms: C2'_459  and  O2'_460 
REMARK       I    between atoms: C3'_462  and  O3'_463 
REMARK       I    between atoms: O3'_463  and  P_464 
REMARK       I    between atoms: P_464  and  O5'_467 
REMARK       I    between atoms: O5'_467  and  C5'_468 
REMARK       I    between atoms: C5'_468  and  C4'_469 
REMARK       I    between atoms: C1'_471  and  N1_472 
REMARK       I    between atoms: C2'_481  and  O2'_482 
REMARK       I    between atoms: C3'_484  and  O3'_485 
REMARK       I    between atoms: O3'_485  and  P_486 
REMARK       I    between atoms: P_486  and  O5'_489 
REMARK       I    between atoms: O5'_489  and  C5'_490 
REMARK       I    between atoms: C5'_490  and  C4'_491 
REMARK       I    between atoms: C1'_493  and  N9_494 
REMARK       I    between atoms: C6_499  and  N6_500 
REMARK       I    between atoms: C2'_506  and  O2'_507 
REMARK       I    between atoms: C3'_509  and  O3'_510 
REMARK       I    between atoms: O3'_510  and  P_511 
REMARK       I    between atoms: P_511  and  O5'_514 
REMARK       I    between atoms: O5'_514  and  C5'_515 
REMARK       I    between atoms: C5'_515  and  C4'_516 
REMARK       I    between atoms: C1'_518  and  N9_519 
REMARK       I    between atoms: C2_522  and  N2_523 
REMARK       I    between atoms: C2'_533  and  O2'_534 
REMARK       I    between atoms: C3'_536  and  O3'_537 
REMARK       I    between atoms: O3'_537  and  P_538 
REMARK       I    between atoms: P_538  and  O5'_541 
REMARK       I    between atoms: O5'_541  and  C5'_542 
REMARK       I    between atoms: C5'_542  and  C4'_543 
REMARK       I    between atoms: C1'_545  and  N9_546 
REMARK       I    between atoms: C6_551  and  N6_552 
REMARK       I    between atoms: C2'_558  and  O2'_559 
REMARK       I    between atoms: C3'_561  and  O3'_562 
REMARK       I    between atoms: O3'_562  and  P_563 
REMARK       I    between atoms: P_563  and  O5'_566 
REMARK       I    between atoms: O5'_566  and  C5'_567 
REMARK       I    between atoms: C5'_567  and  C4'_568 
REMARK       I    between atoms: C1'_570  and  N1_571 
REMARK       I    between atoms: C4_576  and  N4_577 
REMARK       I    between atoms: C2'_581  and  O2'_582 
REMARK       I    between atoms: C3'_584  and  O3'_585 
REMARK       I    between atoms: O3'_585  and  P_586 
REMARK       I    between atoms: P_586  and  O5'_589 
REMARK       I    between atoms: O5'_589  and  C5'_590 
REMARK       I    between atoms: C5'_590  and  C4'_591 
REMARK       I    between atoms: C1'_593  and  N9_594 
REMARK       I    between atoms: C6_599  and  N6_600 
REMARK       I    between atoms: C2'_606  and  O2'_607 
REMARK       I    between atoms: C3'_609  and  O3'_610 
REMARK       I    between atoms: O3'_610  and  P_611 
REMARK       I    between atoms: P_611  and  O5'_614 
REMARK       I    between atoms: O5'_614  and  C5'_615 
REMARK       I    between atoms: C5'_615  and  C4'_616 
REMARK       I    between atoms: C1'_618  and  N1_619 
REMARK       I    between atoms: C4_624  and  N4_625 
REMARK       I    between atoms: C2'_629  and  O2'_630 
REMARK       I    between atoms: C3'_632  and  O3'_633 
REMARK       I    between atoms: O3'_633  and  P_634 
REMARK       I    between atoms: P_634  and  O5'_637 
REMARK       I    between atoms: O5'_637  and  C5'_638 
REMARK       I    between atoms: C5'_638  and  C4'_639 
REMARK       I    between atoms: C1'_641  and  N9_642 
REMARK       I    between atoms: C2_645  and  N2_646 
REMARK       I    between atoms: C2'_656  and  O2'_657 
REMARK       I    between atoms: C3'_659  and  O3'_660 
REMARK       I    between atoms: O3'_660  and  P_661 
REMARK       I    between atoms: P_661  and  O5'_664 
REMARK       I    between atoms: O5'_664  and  C5'_665 
REMARK       I    between atoms: C5'_665  and  C4'_666 
REMARK       I    between atoms: C1'_668  and  N1_669 
REMARK       I    between atoms: C4_674  and  N4_675 
REMARK       I    between atoms: C2'_679  and  O2'_680 
REMARK       I    between atoms: C3'_682  and  O3'_683 
REMARK       I    between atoms: O3'_683  and  P_684 
REMARK       I    between atoms: P_684  and  O5'_687 
REMARK       I    between atoms: O5'_687  and  C5'_688 
REMARK       I    between atoms: C5'_688  and  C4'_689 
REMARK       I    between atoms: C1'_691  and  N1_692 
REMARK       I    between atoms: C4_697  and  N4_698 
REMARK       I    between atoms: C2'_702  and  O2'_703 
REMARK       I    between atoms: C3'_705  and  O3'_706 
REMARK       I    between atoms: O3'_706  and  P_707 
REMARK       I    between atoms: P_707  and  O5'_710 
REMARK       I    between atoms: O5'_710  and  C5'_711 
REMARK       I    between atoms: C5'_711  and  C4'_712 
REMARK       I    between atoms: C1'_714  and  N9_715 
REMARK       I    between atoms: C2_718  and  N2_719 
REMARK       I    between atoms: C2'_729  and  O2'_730 
REMARK       I    between atoms: C3'_732  and  O3'_733 
REMARK       I    between atoms: O3'_733  and  P_734 
REMARK       I    between atoms: P_734  and  O5'_737 
REMARK       I    between atoms: O5'_737  and  C5'_738 
REMARK       I    between atoms: C5'_738  and  C4'_739 
REMARK       I    between atoms: C1'_741  and  N9_742 
REMARK       I    between atoms: C2_745  and  N2_746 
REMARK       I    between atoms: C2'_756  and  O2'_757 
REMARK       I    between atoms: C3'_759  and  O3'_760 
REMARK       I    between atoms: O3'_760  and  P_761 
REMARK       I    between atoms: P_761  and  O5'_764 
REMARK       I    between atoms: O5'_764  and  C5'_765 
REMARK       I    between atoms: C5'_765  and  C4'_766 
REMARK       I    between atoms: C1'_768  and  N9_769 
REMARK       I    between atoms: C6_774  and  N6_775 
REMARK       I    between atoms: C2'_781  and  O2'_782 
REMARK       I    between atoms: C3'_784  and  O3'_785 
REMARK       I    between atoms: O3'_785  and  P_786 
REMARK       I    between atoms: P_786  and  O5'_789 
REMARK       I    between atoms: O5'_789  and  C5'_790 
REMARK       I    between atoms: C5'_790  and  C4'_791 
REMARK       I    between atoms: C1'_793  and  N1_794 
REMARK       I    between atoms: C2'_803  and  O2'_804 
REMARK       I    between atoms: C3'_806  and  O3'_807 
REMARK       I    between atoms: O3'_807  and  P_808 
REMARK       I    between atoms: P_808  and  O5'_811 
REMARK       I    between atoms: O5'_811  and  C5'_812 
REMARK       I    between atoms: C5'_812  and  C4'_813 
REMARK       I    between atoms: C1'_815  and  N1_816 
REMARK       I    between atoms: C2'_825  and  O2'_826 
REMARK       I    between atoms: C3'_828  and  O3'_829 
REMARK       I    between atoms: O3'_829  and  P_830 
REMARK       I    between atoms: P_830  and  O5'_833 
REMARK       I    between atoms: O5'_833  and  C5'_834 
REMARK       I    between atoms: C5'_834  and  C4'_835 
REMARK       I    between atoms: C1'_837  and  N1_838 
REMARK       I    between atoms: C2'_847  and  O2'_848 
REMARK       I    between atoms: C3'_850  and  O3'_851 
REMARK       I    between atoms: O3'_851  and  P_852 
REMARK       I    between atoms: P_852  and  O5'_855 
REMARK       I    between atoms: O5'_855  and  C5'_856 
REMARK       I    between atoms: C5'_856  and  C4'_857 
REMARK       I    between atoms: C1'_859  and  N9_860 
REMARK       I    between atoms: C6_865  and  N6_866 
REMARK       I    between atoms: C2'_872  and  O2'_873 
REMARK       I    between atoms: C3'_875  and  O3'_876 
REMARK       I    between atoms: O3'_876  and  P_877 
REMARK       I    between atoms: P_877  and  O5'_880 
REMARK       I    between atoms: O5'_880  and  C5'_881 
REMARK       I    between atoms: C5'_881  and  C4'_882 
REMARK       I    between atoms: C1'_884  and  N9_885 
REMARK       I    between atoms: C2_888  and  N2_889 
REMARK       I    between atoms: C2'_899  and  O2'_900 
REMARK       I    between atoms: C3'_902  and  O3'_903 
REMARK       I    between atoms: O3'_903  and  P_904 
REMARK       I    between atoms: P_904  and  O5'_907 
REMARK       I    between atoms: O5'_907  and  C5'_908 
REMARK       I    between atoms: C5'_908  and  C4'_909 
REMARK       I    between atoms: C1'_911  and  N9_912 
REMARK       I    between atoms: C2_915  and  N2_916 
REMARK       I    between atoms: C2'_926  and  O2'_927 
REMARK       I    between atoms: C3'_929  and  O3'_930 
REMARK       I    between atoms: O3'_930  and  P_931 
REMARK       I    between atoms: P_931  and  O5'_934 
REMARK       I    between atoms: O5'_934  and  C5'_935 
REMARK       I    between atoms: C5'_935  and  C4'_936 
REMARK       I    between atoms: C1'_938  and  N1_939 
REMARK       I    between atoms: C2'_948  and  O2'_949 
REMARK       I    between atoms: C3'_951  and  O3'_952 
REMARK       I    between atoms: O3'_952  and  P_953 
REMARK       I    between atoms: P_953  and  O5'_956 
REMARK       I    between atoms: O5'_956  and  C5'_957 
REMARK       I    between atoms: C5'_957  and  C4'_958 
REMARK       I    between atoms: C1'_960  and  N1_961 
REMARK       I    between atoms: C2'_970  and  O2'_971 
REMARK       I    between atoms: C3'_973  and  O3'_974 
REMARK       I    between atoms: O3'_974  and  P_975 
REMARK       I    between atoms: P_975  and  O5'_978 
REMARK       I    between atoms: O5'_978  and  C5'_979 
REMARK       I    between atoms: C5'_979  and  C4'_980 
REMARK       I    between atoms: C1'_982  and  N9_983 
REMARK       I    between atoms: C2_986  and  N2_987 
REMARK       I    between atoms: C2'_997  and  O2'_998 
REMARK       I    between atoms: C3'_1000  and  O3'_1001 
REMARK       I    between atoms: O3'_1001  and  P_1002 
REMARK       I    between atoms: P_1002  and  O5'_1005 
REMARK       I    between atoms: O5'_1005  and  C5'_1006 
REMARK       I    between atoms: C5'_1006  and  C4'_1007 
REMARK       I    between atoms: C1'_1009  and  N1_1010 
REMARK       I    between atoms: C4_1015  and  N4_1016 
REMARK       I    between atoms: C2'_1020  and  O2'_1021 
REMARK       I    between atoms: C3'_1023  and  O3'_1024 
REMARK       I    between atoms: O3'_1024  and  P_1025 
REMARK       I    between atoms: P_1025  and  O5'_1028 
REMARK       I    between atoms: O5'_1028  and  C5'_1029 
REMARK       I    between atoms: C5'_1029  and  C4'_1030 
REMARK       I    between atoms: C1'_1032  and  N1_1033 
REMARK       I    between atoms: C4_1038  and  N4_1039 
REMARK       I    between atoms: C2'_1043  and  O2'_1044 
REMARK       I    between atoms: C3'_1046  and  O3'_1047 
REMARK       I    between atoms: O3'_1047  and  P_1048 
REMARK       I    between atoms: P_1048  and  O5'_1051 
REMARK       I    between atoms: O5'_1051  and  C5'_1052 
REMARK       I    between atoms: C5'_1052  and  C4'_1053 
REMARK       I    between atoms: C1'_1055  and  N9_1056 
REMARK       I    between atoms: C2_1059  and  N2_1060 
REMARK       I    between atoms: C2'_1070  and  O2'_1071 
REMARK       I    between atoms: C3'_1073  and  O3'_1074 
REMARK       I    between atoms: O3'_1074  and  P_1075 
REMARK       I    between atoms: P_1075  and  O5'_1078 
REMARK       I    between atoms: O5'_1078  and  C5'_1079 
REMARK       I    between atoms: C5'_1079  and  C4'_1080 
REMARK       I    between atoms: C1'_1082  and  N9_1083 
REMARK       I    between atoms: C6_1088  and  N6_1089 
REMARK       I    between atoms: C2'_1095  and  O2'_1096 
REMARK       I    between atoms: C3'_1098  and  O3'_1099 
REMARK       I    between atoms: O3'_1099  and  P_1100 
REMARK       I    between atoms: P_1100  and  O5'_1103 
REMARK       I    between atoms: O5'_1103  and  C5'_1104 
REMARK       I    between atoms: C5'_1104  and  C4'_1105 
REMARK       I    between atoms: C1'_1107  and  N9_1108 
REMARK       I    between atoms: C6_1113  and  N6_1114 
REMARK       I    between atoms: C2'_1120  and  O2'_1121 
REMARK       I    between atoms: C3'_1123  and  O3'_1124 
REMARK       I    between atoms: O3'_1124  and  P_1125 
REMARK       I    between atoms: P_1125  and  O5'_1128 
REMARK       I    between atoms: O5'_1128  and  C5'_1129 
REMARK       I    between atoms: C5'_1129  and  C4'_1130 
REMARK       I    between atoms: C1'_1132  and  N1_1133 
REMARK       I    between atoms: C4_1138  and  N4_1139 
REMARK       I    between atoms: C2'_1143  and  O2'_1144 
REMARK       I    between atoms: C3'_1146  and  O3'_1147 
REMARK       I    between atoms: O3'_1147  and  P_1148 
REMARK       I    between atoms: P_1148  and  O5'_1151 
REMARK       I    between atoms: O5'_1151  and  C5'_1152 
REMARK       I    between atoms: C5'_1152  and  C4'_1153 
REMARK       I    between atoms: C1'_1155  and  N1_1156 
REMARK       I    between atoms: C4_1161  and  N4_1162 
REMARK       I    between atoms: C2'_1166  and  O2'_1167 
REMARK       I    between atoms: C3'_1169  and  O3'_1170 
REMARK       I    between atoms: O3'_1170  and  P_1171 
REMARK       I    between atoms: P_1171  and  O5'_1174 
REMARK       I    between atoms: O5'_1174  and  C5'_1175 
REMARK       I    between atoms: C5'_1175  and  C4'_1176 
REMARK       I    between atoms: C1'_1178  and  N1_1179 
REMARK       I    between atoms: C2'_1188  and  O2'_1189 
REMARK       I    between atoms: C3'_1191  and  O3'_1192 
REMARK       I    between atoms: O3'_1192  and  P_1193 
REMARK       I    between atoms: P_1193  and  O5'_1196 
REMARK       I    between atoms: O5'_1196  and  C5'_1197 
REMARK       I    between atoms: C5'_1197  and  C4'_1198 
REMARK       I    between atoms: C1'_1200  and  N1_1201 
REMARK       I    between atoms: C4_1206  and  N4_1207 
REMARK       I    between atoms: C2'_1211  and  O2'_1212 
REMARK       I    between atoms: C3'_1214  and  O3'_1215 
REMARK       I    between atoms: O3'_1215  and  P_1216 
REMARK       I    between atoms: P_1216  and  O5'_1219 
REMARK       I    between atoms: O5'_1219  and  C5'_1220 
REMARK       I    between atoms: C5'_1220  and  C4'_1221 
REMARK       I    between atoms: C1'_1223  and  N1_1224 
REMARK       I    between atoms: C2'_1233  and  O2'_1234 
REMARK       I    between atoms: C3'_1236  and  O3'_1237 
REMARK       I    between atoms: O3'_1237  and  P_1238 
REMARK       I    between atoms: P_1238  and  O5'_1241 
REMARK       I    between atoms: O5'_1241  and  C5'_1242 
REMARK       I    between atoms: C5'_1242  and  C4'_1243 
REMARK       I    between atoms: C1'_1245  and  N1_1246 
REMARK       I    between atoms: C2'_1255  and  O2'_1256 
REMARK       I    between atoms: C3'_1258  and  O3'_1259 
REMARK       I    between atoms: O3'_1259  and  P_1260 
REMARK       I    between atoms: P_1260  and  O5'_1263 
REMARK       I    between atoms: O5'_1263  and  C5'_1264 
REMARK       I    between atoms: C5'_1264  and  C4'_1265 
REMARK       I    between atoms: C1'_1267  and  N1_1268 
REMARK       I    between atoms: C4_1273  and  N4_1274 
REMARK       I    between atoms: C2'_1278  and  O2'_1279 
REMARK       I    between atoms: C3'_1281  and  O3'_1282 
REMARK       I    between atoms: O3'_1282  and  P_1283 
REMARK       I    between atoms: P_1283  and  O5'_1286 
REMARK       I    between atoms: O5'_1286  and  C5'_1287 
REMARK       I    between atoms: C5'_1287  and  C4'_1288 
REMARK       I    between atoms: C1'_1290  and  N1_1291 
REMARK       I    between atoms: C4_1296  and  N4_1297 
REMARK       I    between atoms: C2'_1301  and  O2'_1302 
REMARK       I    between atoms: C3'_1304  and  O3'_1305 
REMARK       I    between atoms: O3'_1305  and  P_1306 
REMARK       I    between atoms: P_1306  and  O5'_1309 
REMARK       I    between atoms: O5'_1309  and  C5'_1310 
REMARK       I    between atoms: C5'_1310  and  C4'_1311 
REMARK       I    between atoms: C1'_1313  and  N1_1314 
REMARK       I    between atoms: C4_1319  and  N4_1320 
REMARK       I    between atoms: C2'_1324  and  O2'_1325 
REMARK       I    between atoms: C3'_1327  and  O3'_1328 
REMARK       I    between atoms: O3'_1328  and  P_1329 
REMARK       I    between atoms: P_1329  and  O5'_1332 
REMARK       I    between atoms: O5'_1332  and  C5'_1333 
REMARK       I    between atoms: C5'_1333  and  C4'_1334 
REMARK       I    between atoms: C1'_1336  and  N1_1337 
REMARK       I    between atoms: C4_1342  and  N4_1343 
REMARK       I    between atoms: C2'_1347  and  O2'_1348 
REMARK       I    between atoms: C3'_1350  and  O3'_1351 
REMARK       I    between atoms: O3'_1351  and  P_1352 
REMARK       I    between atoms: P_1352  and  O5'_1355 
REMARK       I    between atoms: O5'_1355  and  C5'_1356 
REMARK       I    between atoms: C5'_1356  and  C4'_1357 
REMARK       I    between atoms: C1'_1359  and  N1_1360 
REMARK       I    between atoms: C4_1365  and  N4_1366 
REMARK       I    between atoms: C2'_1370  and  O2'_1371 
REMARK       I    between atoms: C3'_1373  and  O3'_1374 
ROOT
ATOM      1 'HO5  DG A   1      77.290  96.372 197.020  1.00  0.00     0.209 HD
ATOM      2  O5'  DG A   1      77.163  95.427 196.896  1.00  0.00    -0.398 OA
ATOM      3  C5'  DG A   1      76.166  95.263 195.884  1.00  0.00     0.198 C 
ATOM      4  C4'  DG A   1      75.658  96.602 195.399  1.00  0.00     0.180 C 
ATOM      5  O4'  DG A   1      74.873  97.216 196.459  1.00  0.00    -0.353 OA
ATOM      6  C1'  DG A   1      75.195  98.590 196.559  1.00  0.00     0.262 C 
ATOM      7  N9   DG A   1      75.886  98.808 197.827  1.00  0.00    -0.293 N 
ATOM      8  C4   DG A   1      76.152 100.020 198.415  1.00  0.00     0.187 A 
ATOM      9  N3   DG A   1      75.820 101.231 197.922  1.00  0.00    -0.044 NA
ATOM     10  C2   DG A   1      76.210 102.211 198.718  1.00  0.00     0.703 A 
ATOM     11  N2   DG A   1      75.959 103.479 198.382  1.00  0.00    -0.233 N 
ATOM     12  H21  DG A   1      75.474 103.676 197.520  1.00  0.00     0.174 HD
ATOM     13  H22  DG A   1      76.257 104.231 198.987  1.00  0.00     0.174 HD
ATOM     14  N1   DG A   1      76.874 102.019 199.902  1.00  0.00    -0.153 N 
ATOM     15  H1   DG A   1      77.125 102.837 200.433  1.00  0.00     0.187 HD
ATOM     16  C6   DG A   1      77.228 100.784 200.430  1.00  0.00     0.292 A 
ATOM     17  O6   DG A   1      77.828 100.725 201.508  1.00  0.00    -0.265 OA
ATOM     18  C5   DG A   1      76.816  99.721 199.587  1.00  0.00     0.173 A 
ATOM     19  N7   DG A   1      76.963  98.346 199.732  1.00  0.00    -0.234 NA
ATOM     20  C8   DG A   1      76.397  97.850 198.667  1.00  0.00     0.214 A 
ATOM     21  C2'  DG A   1      76.032  98.948 195.332  1.00  0.00     0.199 C 
ATOM     22  O2'  DG A   1      75.157  99.291 194.273  1.00  0.00    -0.388 OA
ATOM     23 'HO2  DG A   1      75.683  99.749 193.618  1.00  0.00     0.210 HD
ATOM     24  C3'  DG A   1      76.737  97.625 195.065  1.00  0.00     0.198 C 
ATOM     25  O3'  DG A   1      77.172  97.499 193.715  1.00  0.00    -0.279 OA
ATOM     26  P    DG A   2      78.654  97.972 193.304  1.00  0.00     0.408 P 
ATOM     27  OP1  DG A   2      78.786  97.783 191.838  1.00  0.00    -0.624 OA
ATOM     28  OP2  DG A   2      79.625  97.318 194.219  1.00  0.00    -0.624 OA
ATOM     29  O5'  DG A   2      78.656  99.537 193.607  1.00  0.00    -0.287 OA
ATOM     30  C5'  DG A   2      78.048 100.460 192.705  1.00  0.00     0.216 C 
ATOM     31  C4'  DG A   2      78.082 101.858 193.282  1.00  0.00     0.180 C 
ATOM     32  O4'  DG A   2      77.607 101.825 194.651  1.00  0.00    -0.353 OA
ATOM     33  C1'  DG A   2      78.249 102.845 195.398  1.00  0.00     0.262 C 
ATOM     34  N9   DG A   2      78.851 102.238 196.581  1.00  0.00    -0.293 N 
ATOM     35  C4   DG A   2      79.364 102.904 197.669  1.00  0.00     0.187 A 
ATOM     36  N3   DG A   2      79.406 104.242 197.833  1.00  0.00    -0.044 NA
ATOM     37  C2   DG A   2      79.956 104.581 198.985  1.00  0.00     0.703 A 
ATOM     38  N2   DG A   2      80.077 105.871 199.310  1.00  0.00    -0.233 N 
ATOM     39  H21  DG A   2      79.746 106.577 198.669  1.00  0.00     0.174 HD
ATOM     40  H22  DG A   2      80.500 106.137 200.188  1.00  0.00     0.174 HD
ATOM     41  N1   DG A   2      80.427 103.681 199.905  1.00  0.00    -0.153 N 
ATOM     42  H1   DG A   2      80.828 104.047 200.754  1.00  0.00     0.187 HD
ATOM     43  C6   DG A   2      80.396 102.299 199.760  1.00  0.00     0.292 A 
ATOM     44  O6   DG A   2      80.849 101.577 200.655  1.00  0.00    -0.265 OA
ATOM     45  C5   DG A   2      79.808 101.918 198.525  1.00  0.00     0.173 A 
ATOM     46  N7   DG A   2      79.582 100.658 197.986  1.00  0.00    -0.234 NA
ATOM     47  C8   DG A   2      79.016 100.899 196.835  1.00  0.00     0.214 A 
ATOM     48  C2'  DG A   2      79.259 103.539 194.480  1.00  0.00     0.199 C 
ATOM     49  O2'  DG A   2      78.658 104.707 193.953  1.00  0.00    -0.388 OA
ATOM     50 'HO2  DG A   2      78.848 104.714 193.015  1.00  0.00     0.210 HD
ATOM     51  C3'  DG A   2      79.462 102.489 193.391  1.00  0.00     0.198 C 
ATOM     52  O3'  DG A   2      79.870 103.062 192.151  1.00  0.00    -0.279 OA
ATOM     53  P    DG A   3      81.434 103.145 191.784  1.00  0.00     0.408 P 
ATOM     54  OP1  DG A   3      81.532 103.683 190.403  1.00  0.00    -0.624 OA
ATOM     55  OP2  DG A   3      82.067 101.842 192.109  1.00  0.00    -0.624 OA
ATOM     56  O5'  DG A   3      82.009 104.247 192.783  1.00  0.00    -0.287 OA
ATOM     57  C5'  DG A   3      81.482 105.573 192.796  1.00  0.00     0.216 C 
ATOM     58  C4'  DG A   3      82.076 106.358 193.942  1.00  0.00     0.180 C 
ATOM     59  O4'  DG A   3      81.688 105.741 195.189  1.00  0.00    -0.353 OA
ATOM     60  C1'  DG A   3      82.661 106.026 196.173  1.00  0.00     0.262 C 
ATOM     61  N9   DG A   3      82.943 104.796 196.906  1.00  0.00    -0.293 N 
ATOM     62  C4   DG A   3      83.439 104.702 198.184  1.00  0.00     0.187 A 
ATOM     63  N3   DG A   3      83.756 105.738 198.990  1.00  0.00    -0.044 NA
ATOM     64  C2   DG A   3      84.207 105.330 200.162  1.00  0.00     0.703 A 
ATOM     65  N2   DG A   3      84.564 106.227 201.085  1.00  0.00    -0.233 N 
ATOM     66  H21  DG A   3      84.486 107.211 200.878  1.00  0.00     0.174 HD
ATOM     67  H22  DG A   3      84.916 105.920 201.982  1.00  0.00     0.174 HD
ATOM     68  N1   DG A   3      84.339 104.013 200.518  1.00  0.00    -0.153 N 
ATOM     69  H1   DG A   3      84.697 103.811 201.437  1.00  0.00     0.187 HD
ATOM     70  C6   DG A   3      84.020 102.930 199.707  1.00  0.00     0.292 A 
ATOM     71  O6   DG A   3      84.178 101.779 200.130  1.00  0.00    -0.265 OA
ATOM     72  C5   DG A   3      83.531 103.351 198.443  1.00  0.00     0.173 A 
ATOM     73  N7   DG A   3      83.104 102.609 197.349  1.00  0.00    -0.234 NA
ATOM     74  C8   DG A   3      82.767 103.507 196.465  1.00  0.00     0.214 A 
ATOM     75  C2'  DG A   3      83.889 106.629 195.484  1.00  0.00     0.199 C 
ATOM     76  O2'  DG A   3      83.925 108.015 195.769  1.00  0.00    -0.388 OA
ATOM     77 'HO2  DG A   3      84.783 108.330 195.482  1.00  0.00     0.210 HD
ATOM     78  C3'  DG A   3      83.596 106.380 194.002  1.00  0.00     0.198 C 
ATOM     79  O3'  DG A   3      84.119 107.409 193.164  1.00  0.00    -0.279 OA
ATOM     80  P    DG A   4      85.580 107.247 192.511  1.00  0.00     0.408 P 
ATOM     81  OP1  DG A   4      85.763 108.376 191.565  1.00  0.00    -0.624 OA
ATOM     82  OP2  DG A   4      85.732 105.852 192.025  1.00  0.00    -0.624 OA
ATOM     83  O5'  DG A   4      86.576 107.471 193.735  1.00  0.00    -0.287 OA
ATOM     84  C5'  DG A   4      87.230 106.370 194.365  1.00  0.00     0.216 C 
ATOM     85  C4'  DG A   4      87.840 106.809 195.674  1.00  0.00     0.180 C 
ATOM     86  O4'  DG A   4      86.987 106.355 196.760  1.00  0.00    -0.353 OA
ATOM     87  C1'  DG A   4      87.786 105.891 197.835  1.00  0.00     0.262 C 
ATOM     88  N9   DG A   4      87.536 104.464 198.010  1.00  0.00    -0.293 N 
ATOM     89  C4   DG A   4      87.841 103.712 199.119  1.00  0.00     0.187 A 
ATOM     90  N3   DG A   4      88.428 104.164 200.246  1.00  0.00    -0.044 NA
ATOM     91  C2   DG A   4      88.590 103.202 201.137  1.00  0.00     0.703 A 
ATOM     92  N2   DG A   4      89.154 103.477 202.315  1.00  0.00    -0.233 N 
ATOM     93  H21  DG A   4      89.452 104.422 202.514  1.00  0.00     0.174 HD
ATOM     94  H22  DG A   4      89.286 102.746 202.999  1.00  0.00     0.174 HD
ATOM     95  N1   DG A   4      88.210 101.900 200.938  1.00  0.00    -0.153 N 
ATOM     96  H1   DG A   4      88.383 101.245 201.685  1.00  0.00     0.187 HD
ATOM     97  C6   DG A   4      87.604 101.411 199.788  1.00  0.00     0.292 A 
ATOM     98  O6   DG A   4      87.300 100.214 199.716  1.00  0.00    -0.265 OA
ATOM     99  C5   DG A   4      87.421 102.432 198.821  1.00  0.00     0.173 A 
ATOM    100  N7   DG A   4      86.864 102.381 197.549  1.00  0.00    -0.234 NA
ATOM    101  C8   DG A   4      86.953 103.605 197.109  1.00  0.00     0.214 A 
ATOM    102  C2'  DG A   4      89.240 106.225 197.507  1.00  0.00     0.199 C 
ATOM    103  O2'  DG A   4      89.535 107.515 198.009  1.00  0.00    -0.388 OA
ATOM    104 'HO2  DG A   4      89.996 107.981 197.311  1.00  0.00     0.210 HD
ATOM    105  C3'  DG A   4      89.211 106.223 195.983  1.00  0.00     0.198 C 
ATOM    106  O3'  DG A   4      90.254 107.015 195.420  1.00  0.00    -0.279 OA
ATOM    107  P    DG A   5      91.672 106.340 195.074  1.00  0.00     0.408 P 
ATOM    108  OP1  DG A   5      92.551 107.411 194.540  1.00  0.00    -0.624 OA
ATOM    109  OP2  DG A   5      91.427 105.120 194.262  1.00  0.00    -0.624 OA
ATOM    110  O5'  DG A   5      92.244 105.893 196.493  1.00  0.00    -0.287 OA
ATOM    111  C5'  DG A   5      92.598 106.861 197.480  1.00  0.00     0.216 C 
ATOM    112  C4'  DG A   5      93.347 106.196 198.613  1.00  0.00     0.180 C 
ATOM    113  O4'  DG A   5      92.404 105.440 199.416  1.00  0.00    -0.353 OA
ATOM    114  C1'  DG A   5      93.003 104.234 199.853  1.00  0.00     0.262 C 
ATOM    115  N9   DG A   5      92.218 103.119 199.333  1.00  0.00    -0.293 N 
ATOM    116  C4   DG A   5      91.984 101.918 199.961  1.00  0.00     0.187 A 
ATOM    117  N3   DG A   5      92.442 101.558 201.180  1.00  0.00    -0.044 NA
ATOM    118  C2   DG A   5      92.051 100.341 201.513  1.00  0.00     0.703 A 
ATOM    119  N2   DG A   5      92.411  99.828 202.693  1.00  0.00    -0.233 N 
ATOM    120  H21  DG A   5      92.979 100.381 203.319  1.00  0.00     0.174 HD
ATOM    121  H22  DG A   5      92.126  98.896 202.959  1.00  0.00     0.174 HD
ATOM    122  N1   DG A   5      91.278  99.538 200.716  1.00  0.00    -0.153 N 
ATOM    123  H1   DG A   5      91.039  98.621 201.064  1.00  0.00     0.187 HD
ATOM    124  C6   DG A   5      90.794  99.887 199.461  1.00  0.00     0.292 A 
ATOM    125  O6   DG A   5      90.101  99.085 198.826  1.00  0.00    -0.265 OA
ATOM    126  C5   DG A   5      91.203 101.193 199.087  1.00  0.00     0.173 A 
ATOM    127  N7   DG A   5      90.948 101.922 197.933  1.00  0.00    -0.234 NA
ATOM    128  C8   DG A   5      91.568 103.054 198.125  1.00  0.00     0.214 A 
ATOM    129  C2'  DG A   5      94.458 104.230 199.381  1.00  0.00     0.199 C 
ATOM    130  O2'  DG A   5      95.271 104.751 200.416  1.00  0.00    -0.388 OA
ATOM    131 'HO2  DG A   5      96.118 104.306 200.354  1.00  0.00     0.210 HD
ATOM    132  C3'  DG A   5      94.399 105.181 198.188  1.00  0.00     0.198 C 
ATOM    133  O3'  DG A   5      95.648 105.815 197.933  1.00  0.00    -0.279 OA
ATOM    134  P    DA A   6      96.845 104.980 197.255  1.00  0.00     0.408 P 
ATOM    135  OP1  DA A   6      97.872 105.958 196.817  1.00  0.00    -0.624 OA
ATOM    136  OP2  DA A   6      96.261 104.036 196.266  1.00  0.00    -0.624 OA
ATOM    137  O5'  DA A   6      97.455 104.135 198.460  1.00  0.00    -0.287 OA
ATOM    138  C5'  DA A   6      98.330 103.033 198.216  1.00  0.00     0.216 C 
ATOM    139  C4'  DA A   6      98.223 102.026 199.337  1.00  0.00     0.180 C 
ATOM    140  O4'  DA A   6      96.835 101.914 199.748  1.00  0.00    -0.353 OA
ATOM    141  C1'  DA A   6      96.534 100.568 200.069  1.00  0.00     0.262 C 
ATOM    142  N9   DA A   6      95.466 100.112 199.180  1.00  0.00    -0.294 N 
ATOM    143  C4   DA A   6      94.760  98.937 199.283  1.00  0.00     0.167 A 
ATOM    144  N3   DA A   6      94.906  97.976 200.211  1.00  0.00    -0.222 NA
ATOM    145  C2   DA A   6      94.054  96.977 199.990  1.00  0.00     0.237 A 
ATOM    146  N1   DA A   6      93.138  96.843 199.023  1.00  0.00    -0.222 NA
ATOM    147  C6   DA A   6      93.012  97.832 198.111  1.00  0.00     0.155 A 
ATOM    148  N6   DA A   6      92.093  97.703 197.154  1.00  0.00    -0.382 N 
ATOM    149  H61  DA A   6      91.983  98.434 196.466  1.00  0.00     0.157 HD
ATOM    150  H62  DA A   6      91.509  96.880 197.114  1.00  0.00     0.157 HD
ATOM    151  C5   DA A   6      93.863  98.944 198.231  1.00  0.00     0.149 A 
ATOM    152  N7   DA A   6      93.997 100.101 197.478  1.00  0.00    -0.236 NA
ATOM    153  C8   DA A   6      94.959 100.758 198.079  1.00  0.00     0.214 A 
ATOM    154  C2'  DA A   6      97.827  99.759 199.948  1.00  0.00     0.199 C 
ATOM    155  O2'  DA A   6      98.457  99.713 201.215  1.00  0.00    -0.388 OA
ATOM    156 'HO2  DA A   6      99.400  99.684 201.045  1.00  0.00     0.210 HD
ATOM    157  C3'  DA A   6      98.629 100.606 198.967  1.00  0.00     0.198 C 
ATOM    158  O3'  DA A   6     100.036 100.416 199.111  1.00  0.00    -0.279 OA
ATOM    159  P    DG A   7     100.963 100.246 197.805  1.00  0.00     0.408 P 
ATOM    160  OP1  DG A   7     102.219 100.998 198.062  1.00  0.00    -0.624 OA
ATOM    161  OP2  DG A   7     100.161 100.556 196.594  1.00  0.00    -0.624 OA
ATOM    162  O5'  DG A   7     101.315  98.693 197.786  1.00  0.00    -0.287 OA
ATOM    163  C5'  DG A   7     101.622  97.995 198.992  1.00  0.00     0.216 C 
ATOM    164  C4'  DG A   7     100.880  96.679 199.035  1.00  0.00     0.180 C 
ATOM    165  O4'  DG A   7      99.466  96.941 199.224  1.00  0.00    -0.353 OA
ATOM    166  C1'  DG A   7      98.707  95.952 198.551  1.00  0.00     0.262 C 
ATOM    167  N9   DG A   7      97.795  96.619 197.628  1.00  0.00    -0.293 N 
ATOM    168  C4   DG A   7      96.577  96.147 197.205  1.00  0.00     0.187 A 
ATOM    169  N3   DG A   7      96.011  94.980 197.571  1.00  0.00    -0.044 NA
ATOM    170  C2   DG A   7      94.836  94.800 196.997  1.00  0.00     0.703 A 
ATOM    171  N2   DG A   7      94.141  93.689 197.249  1.00  0.00    -0.233 N 
ATOM    172  H21  DG A   7      94.525  93.000 197.879  1.00  0.00     0.174 HD
ATOM    173  H22  DG A   7      93.248  93.530 196.808  1.00  0.00     0.174 HD
ATOM    174  N1   DG A   7      94.259  95.695 196.133  1.00  0.00    -0.153 N 
ATOM    175  H1   DG A   7      93.355  95.466 195.751  1.00  0.00     0.187 HD
ATOM    176  C6   DG A   7      94.824  96.902 195.739  1.00  0.00     0.292 A 
ATOM    177  O6   DG A   7      94.217  97.634 194.950  1.00  0.00    -0.265 OA
ATOM    178  C5   DG A   7      96.088  97.110 196.347  1.00  0.00     0.173 A 
ATOM    179  N7   DG A   7      96.981  98.168 196.233  1.00  0.00    -0.234 NA
ATOM    180  C8   DG A   7      97.975  97.831 197.009  1.00  0.00     0.214 A 
ATOM    181  C2'  DG A   7      99.681  94.992 197.865  1.00  0.00     0.199 C 
ATOM    182  O2'  DG A   7      99.888  93.885 198.720  1.00  0.00    -0.388 OA
ATOM    183 'HO2  DG A   7     100.043  93.117 198.169  1.00  0.00     0.210 HD
ATOM    184  C3'  DG A   7     100.938  95.852 197.760  1.00  0.00     0.198 C 
ATOM    185  O3'  DG A   7     102.128  95.069 197.700  1.00  0.00    -0.279 OA
ATOM    186  P    DT A   8     103.279  95.437 196.637  1.00  0.00     0.408 P 
ATOM    187  OP1  DT A   8     103.147  96.873 196.282  1.00  0.00    -0.624 OA
ATOM    188  OP2  DT A   8     103.253  94.412 195.564  1.00  0.00    -0.624 OA
ATOM    189  O5'  DT A   8     104.631  95.253 197.461  1.00  0.00    -0.287 OA
ATOM    190  C5'  DT A   8     105.246  96.356 198.125  1.00  0.00     0.216 C 
ATOM    191  C4'  DT A   8     105.904  95.897 199.407  1.00  0.00     0.180 C 
ATOM    192  O4'  DT A   8     104.970  95.054 200.137  1.00  0.00    -0.353 OA
ATOM    193  C1'  DT A   8     105.655  93.943 200.686  1.00  0.00     0.264 C 
ATOM    194  N1   DT A   8     105.162  92.723 200.031  1.00  0.00    -0.280 N 
ATOM    195  C6   DT A   8     104.326  92.786 198.940  1.00  0.00     0.104 A 
ATOM    196  C2   DT A   8     105.569  91.508 200.548  1.00  0.00     0.331 A 
ATOM    197  O2   DT A   8     106.309  91.413 201.510  1.00  0.00    -0.246 OA
ATOM    198  N3   DT A   8     105.076  90.406 199.897  1.00  0.00    -0.275 N 
ATOM    199  H3   DT A   8     105.371  89.504 200.238  1.00  0.00     0.173 HD
ATOM    200  C4   DT A   8     104.236  90.397 198.805  1.00  0.00     0.250 A 
ATOM    201  O4   DT A   8     103.868  89.321 198.337  1.00  0.00    -0.268 OA
ATOM    202  C5   DT A   8     103.865  91.692 198.329  1.00  0.00     0.092 A 
ATOM    203  C2'  DT A   8     107.151  94.186 200.493  1.00  0.00     0.199 C 
ATOM    204  O2'  DT A   8     107.642  94.911 201.605  1.00  0.00    -0.388 OA
ATOM    205 'HO2  DT A   8     108.332  95.483 201.266  1.00  0.00     0.210 HD
ATOM    206  C3'  DT A   8     107.153  95.041 199.233  1.00  0.00     0.198 C 
ATOM    207  O3'  DT A   8     108.329  95.840 199.133  1.00  0.00    -0.279 OA
ATOM    208  P    DG A   9     108.879  96.286 197.688  1.00  0.00     0.408 P 
ATOM    209  OP1  DG A   9     109.182  97.736 197.772  1.00  0.00    -0.624 OA
ATOM    210  OP2  DG A   9     107.952  95.790 196.637  1.00  0.00    -0.624 OA
ATOM    211  O5'  DG A   9     110.259  95.504 197.542  1.00  0.00    -0.287 OA
ATOM    212  C5'  DG A   9     110.325  94.085 197.693  1.00  0.00     0.216 C 
ATOM    213  C4'  DG A   9     111.041  93.732 198.975  1.00  0.00     0.180 C 
ATOM    214  O4'  DG A   9     110.049  93.342 199.965  1.00  0.00    -0.353 OA
ATOM    215  C1'  DG A   9     110.476  92.172 200.637  1.00  0.00     0.262 C 
ATOM    216  N9   DG A   9     109.626  91.061 200.217  1.00  0.00    -0.293 N 
ATOM    217  C4   DG A   9     109.686  89.769 200.677  1.00  0.00     0.187 A 
ATOM    218  N3   DG A   9     110.545  89.296 201.603  1.00  0.00    -0.044 NA
ATOM    219  C2   DG A   9     110.359  88.009 201.836  1.00  0.00     0.703 A 
ATOM    220  N2   DG A   9     111.130  87.378 202.726  1.00  0.00    -0.233 N 
ATOM    221  H21  DG A   9     111.847  87.894 203.213  1.00  0.00     0.174 HD
ATOM    222  H22  DG A   9     110.999  86.393 202.906  1.00  0.00     0.174 HD
ATOM    223  N1   DG A   9     109.407  87.246 201.212  1.00  0.00    -0.153 N 
ATOM    224  H1   DG A   9     109.348  86.272 201.466  1.00  0.00     0.187 HD
ATOM    225  C6   DG A   9     108.512  87.709 200.256  1.00  0.00     0.292 A 
ATOM    226  O6   DG A   9     107.691  86.932 199.755  1.00  0.00    -0.265 OA
ATOM    227  C5   DG A   9     108.698  89.091 199.993  1.00  0.00     0.173 A 
ATOM    228  N7   DG A   9     108.030  89.941 199.121  1.00  0.00    -0.234 NA
ATOM    229  C8   DG A   9     108.615  91.094 199.288  1.00  0.00     0.214 A 
ATOM    230  C2'  DG A   9     111.952  91.977 200.296  1.00  0.00     0.199 C 
ATOM    231  O2'  DG A   9     112.733  92.751 201.187  1.00  0.00    -0.388 OA
ATOM    232 'HO2  DG A   9     113.386  93.205 200.653  1.00  0.00     0.210 HD
ATOM    233  C3'  DG A   9     112.000  92.549 198.886  1.00  0.00     0.198 C 
ATOM    234  O3'  DG A   9     113.313  92.961 198.515  1.00  0.00    -0.279 OA
ATOM    235  P    DG A  10     114.283  91.939 197.738  1.00  0.00     0.408 P 
ATOM    236  OP1  DG A  10     115.621  92.576 197.661  1.00  0.00    -0.624 OA
ATOM    237  OP2  DG A  10     113.604  91.506 196.490  1.00  0.00    -0.624 OA
ATOM    238  O5'  DG A  10     114.386  90.680 198.712  1.00  0.00    -0.287 OA
ATOM    239  C5'  DG A  10     115.199  90.722 199.884  1.00  0.00     0.216 C 
ATOM    240  C4'  DG A  10     115.439  89.323 200.407  1.00  0.00     0.180 C 
ATOM    241  O4'  DG A  10     114.197  88.802 200.954  1.00  0.00    -0.353 OA
ATOM    242  C1'  DG A  10     114.097  87.416 200.676  1.00  0.00     0.262 C 
ATOM    243  N9   DG A  10     112.917  87.196 199.845  1.00  0.00    -0.293 N 
ATOM    244  C4   DG A  10     112.305  85.991 199.596  1.00  0.00     0.187 A 
ATOM    245  N3   DG A  10     112.693  84.791 200.076  1.00  0.00    -0.044 NA
ATOM    246  C2   DG A  10     111.903  83.817 199.663  1.00  0.00     0.703 A 
ATOM    247  N2   DG A  10     112.146  82.561 200.044  1.00  0.00    -0.233 N 
ATOM    248  H21  DG A  10     112.933  82.368 200.646  1.00  0.00     0.174 HD
ATOM    249  H22  DG A  10     111.547  81.809 199.731  1.00  0.00     0.174 HD
ATOM    250  N1   DG A  10     110.819  84.002 198.845  1.00  0.00    -0.153 N 
ATOM    251  H1   DG A  10     110.282  83.188 198.589  1.00  0.00     0.187 HD
ATOM    252  C6   DG A  10     110.400  85.225 198.338  1.00  0.00     0.292 A 
ATOM    253  O6   DG A  10     109.404  85.278 197.605  1.00  0.00    -0.265 OA
ATOM    254  C5   DG A  10     111.238  86.285 198.772  1.00  0.00     0.173 A 
ATOM    255  N7   DG A  10     111.182  87.647 198.506  1.00  0.00    -0.234 NA
ATOM    256  C8   DG A  10     112.196  88.144 199.160  1.00  0.00     0.214 A 
ATOM    257  C2'  DG A  10     115.403  86.983 200.010  1.00  0.00     0.199 C 
ATOM    258  O2'  DG A  10     116.311  86.571 201.015  1.00  0.00    -0.388 OA
ATOM    259 'HO2  DG A  10     117.163  86.943 200.787  1.00  0.00     0.210 HD
ATOM    260  C3'  DG A  10     115.852  88.290 199.368  1.00  0.00     0.198 C 
ATOM    261  O3'  DG A  10     117.257  88.318 199.125  1.00  0.00    -0.279 OA
ATOM    262  P    DT A  11     117.840  87.755 197.735  1.00  0.00     0.408 P 
ATOM    263  OP1  DT A  11     119.311  87.623 197.894  1.00  0.00    -0.624 OA
ATOM    264  OP2  DT A  11     117.293  88.582 196.631  1.00  0.00    -0.624 OA
ATOM    265  O5'  DT A  11     117.217  86.292 197.617  1.00  0.00    -0.287 OA
ATOM    266  C5'  DT A  11     117.720  85.212 198.401  1.00  0.00     0.216 C 
ATOM    267  C4'  DT A  11     116.969  83.939 198.081  1.00  0.00     0.180 C 
ATOM    268  O4'  DT A  11     115.572  84.111 198.436  1.00  0.00    -0.353 OA
ATOM    269  C1'  DT A  11     114.754  83.429 197.500  1.00  0.00     0.264 C 
ATOM    270  N1   DT A  11     113.868  84.410 196.856  1.00  0.00    -0.280 N 
ATOM    271  C6   DT A  11     114.204  85.744 196.795  1.00  0.00     0.104 A 
ATOM    272  C2   DT A  11     112.684  83.947 196.314  1.00  0.00     0.331 A 
ATOM    273  O2   DT A  11     112.353  82.775 196.349  1.00  0.00    -0.246 OA
ATOM    274  N3   DT A  11     111.900  84.908 195.727  1.00  0.00    -0.275 N 
ATOM    275  H3   DT A  11     111.028  84.601 195.324  1.00  0.00     0.173 HD
ATOM    276  C4   DT A  11     112.173  86.255 195.633  1.00  0.00     0.250 A 
ATOM    277  O4   DT A  11     111.366  86.997 195.074  1.00  0.00    -0.268 OA
ATOM    278  C5   DT A  11     113.415  86.654 196.218  1.00  0.00     0.092 A 
ATOM    279  C2'  DT A  11     115.675  82.701 196.521  1.00  0.00     0.199 C 
ATOM    280  O2'  DT A  11     115.896  81.391 197.006  1.00  0.00    -0.388 OA
ATOM    281 'HO2  DT A  11     116.698  81.072 196.593  1.00  0.00     0.210 HD
ATOM    282  C3'  DT A  11     116.938  83.549 196.610  1.00  0.00     0.198 C 
ATOM    283  O3'  DT A  11     118.107  82.826 196.234  1.00  0.00    -0.279 OA
ATOM    284  P    DG A  12     118.493  82.681 194.679  1.00  0.00     0.408 P 
ATOM    285  OP1  DG A  12     119.954  82.420 194.610  1.00  0.00    -0.624 OA
ATOM    286  OP2  DG A  12     117.919  83.833 193.937  1.00  0.00    -0.624 OA
ATOM    287  O5'  DG A  12     117.732  81.361 194.214  1.00  0.00    -0.287 OA
ATOM    288  C5'  DG A  12     118.075  80.086 194.755  1.00  0.00     0.216 C 
ATOM    289  C4'  DG A  12     117.031  79.061 194.376  1.00  0.00     0.180 C 
ATOM    290  O4'  DG A  12     115.726  79.533 194.802  1.00  0.00    -0.353 OA
ATOM    291  C1'  DG A  12     114.743  79.126 193.865  1.00  0.00     0.262 C 
ATOM    292  N9   DG A  12     114.087  80.318 193.338  1.00  0.00    -0.293 N 
ATOM    293  C4   DG A  12     112.810  80.392 192.837  1.00  0.00     0.187 A 
ATOM    294  N3   DG A  12     111.937  79.368 192.743  1.00  0.00    -0.044 NA
ATOM    295  C2   DG A  12     110.787  79.748 192.218  1.00  0.00     0.703 A 
ATOM    296  N2   DG A  12     109.807  78.857 192.057  1.00  0.00    -0.233 N 
ATOM    297  H21  DG A  12     109.953  77.899 192.340  1.00  0.00     0.174 HD
ATOM    298  H22  DG A  12     108.925  79.139 191.653  1.00  0.00     0.174 HD
ATOM    299  N1   DG A  12     110.513  81.028 191.812  1.00  0.00    -0.153 N 
ATOM    300  H1   DG A  12     109.602  81.212 191.421  1.00  0.00     0.187 HD
ATOM    301  C6   DG A  12     111.395  82.099 191.896  1.00  0.00     0.292 A 
ATOM    302  O6   DG A  12     111.043  83.218 191.498  1.00  0.00    -0.265 OA
ATOM    303  C5   DG A  12     112.637  81.708 192.462  1.00  0.00     0.173 A 
ATOM    304  N7   DG A  12     113.783  82.449 192.724  1.00  0.00    -0.234 NA
ATOM    305  C8   DG A  12     114.613  81.584 193.240  1.00  0.00     0.214 A 
ATOM    306  C2'  DG A  12     115.441  78.286 192.793  1.00  0.00     0.199 C 
ATOM    307  O2'  DG A  12     115.372  76.924 193.172  1.00  0.00    -0.388 OA
ATOM    308 'HO2  DG A  12     116.262  76.578 193.111  1.00  0.00     0.210 HD
ATOM    309  C3'  DG A  12     116.868  78.812 192.883  1.00  0.00     0.198 C 
ATOM    310  O3'  DG A  12     117.827  77.875 192.401  1.00  0.00    -0.279 OA
ATOM    311  P    DG A  13     118.230  77.871 190.843  1.00  0.00     0.408 P 
ATOM    312  OP1  DG A  13     119.299  76.855 190.670  1.00  0.00    -0.624 OA
ATOM    313  OP2  DG A  13     118.472  79.272 190.413  1.00  0.00    -0.624 OA
ATOM    314  O5'  DG A  13     116.920  77.339 190.108  1.00  0.00    -0.287 OA
ATOM    315  C5'  DG A  13     116.399  76.040 190.384  1.00  0.00     0.216 C 
ATOM    316  C4'  DG A  13     115.119  75.816 189.613  1.00  0.00     0.180 C 
ATOM    317  O4'  DG A  13     114.181  76.880 189.923  1.00  0.00    -0.353 OA
ATOM    318  C1'  DG A  13     113.373  77.144 188.789  1.00  0.00     0.262 C 
ATOM    319  N9   DG A  13     113.486  78.563 188.465  1.00  0.00    -0.293 N 
ATOM    320  C4   DG A  13     112.548  79.328 187.813  1.00  0.00     0.187 A 
ATOM    321  N3   DG A  13     111.354  78.897 187.357  1.00  0.00    -0.044 NA
ATOM    322  C2   DG A  13     110.671  79.865 186.773  1.00  0.00     0.703 A 
ATOM    323  N2   DG A  13     109.462  79.609 186.264  1.00  0.00    -0.233 N 
ATOM    324  H21  DG A  13     109.087  78.674 186.336  1.00  0.00     0.174 HD
ATOM    325  H22  DG A  13     108.930  80.337 185.815  1.00  0.00     0.174 HD
ATOM    326  N1   DG A  13     111.122  81.153 186.643  1.00  0.00    -0.153 N 
ATOM    327  H1   DG A  13     110.522  81.817 186.179  1.00  0.00     0.187 HD
ATOM    328  C6   DG A  13     112.347  81.621 187.105  1.00  0.00     0.292 A 
ATOM    329  O6   DG A  13     112.652  82.807 186.937  1.00  0.00    -0.265 OA
ATOM    330  C5   DG A  13     113.094  80.591 187.737  1.00  0.00     0.173 A 
ATOM    331  N7   DG A  13     114.350  80.622 188.328  1.00  0.00    -0.234 NA
ATOM    332  C8   DG A  13     114.539  79.400 188.744  1.00  0.00     0.214 A 
ATOM    333  C2'  DG A  13     113.829  76.219 187.658  1.00  0.00     0.199 C 
ATOM    334  O2'  DG A  13     113.003  75.069 187.653  1.00  0.00    -0.388 OA
ATOM    335 'HO2  DG A  13     113.587  74.315 187.569  1.00  0.00     0.210 HD
ATOM    336  C3'  DG A  13     115.248  75.872 188.099  1.00  0.00     0.198 C 
ATOM    337  O3'  DG A  13     115.695  74.627 187.569  1.00  0.00    -0.279 OA
ATOM    338  P    DA A  14     116.736  74.609 186.342  1.00  0.00     0.408 P 
ATOM    339  OP1  DA A  14     116.970  73.186 185.985  1.00  0.00    -0.624 OA
ATOM    340  OP2  DA A  14     117.888  75.478 186.691  1.00  0.00    -0.624 OA
ATOM    341  O5'  DA A  14     115.933  75.295 185.148  1.00  0.00    -0.287 OA
ATOM    342  C5'  DA A  14     114.725  74.723 184.648  1.00  0.00     0.216 C 
ATOM    343  C4'  DA A  14     114.133  75.611 183.579  1.00  0.00     0.180 C 
ATOM    344  O4'  DA A  14     113.506  76.756 184.214  1.00  0.00    -0.353 OA
ATOM    345  C1'  DA A  14     113.741  77.920 183.443  1.00  0.00     0.262 C 
ATOM    346  N9   DA A  14     114.518  78.858 184.252  1.00  0.00    -0.294 N 
ATOM    347  C4   DA A  14     114.438  80.230 184.210  1.00  0.00     0.167 A 
ATOM    348  N3   DA A  14     113.640  80.977 183.428  1.00  0.00    -0.222 NA
ATOM    349  C2   DA A  14     113.837  82.273 183.660  1.00  0.00     0.237 A 
ATOM    350  N1   DA A  14     114.674  82.860 184.522  1.00  0.00    -0.222 NA
ATOM    351  C6   DA A  14     115.461  82.081 185.293  1.00  0.00     0.155 A 
ATOM    352  N6   DA A  14     116.293  82.670 186.153  1.00  0.00    -0.382 N 
ATOM    353  H61  DA A  14     116.889  82.106 186.741  1.00  0.00     0.157 HD
ATOM    354  H62  DA A  14     116.322  83.676 186.209  1.00  0.00     0.157 HD
ATOM    355  C5   DA A  14     115.351  80.688 185.142  1.00  0.00     0.149 A 
ATOM    356  N7   DA A  14     115.997  79.627 185.761  1.00  0.00    -0.236 NA
ATOM    357  C8   DA A  14     115.468  78.567 185.200  1.00  0.00     0.214 A 
ATOM    358  C2'  DA A  14     114.445  77.491 182.155  1.00  0.00     0.199 C 
ATOM    359  O2'  DA A  14     113.465  77.225 181.170  1.00  0.00    -0.388 OA
ATOM    360 'HO2  DA A  14     113.758  76.448 180.693  1.00  0.00     0.210 HD
ATOM    361  C3'  DA A  14     115.138  76.210 182.605  1.00  0.00     0.198 C 
ATOM    362  O3'  DA A  14     115.399  75.323 181.518  1.00  0.00    -0.279 OA
ATOM    363  P    DA A  15     116.916  75.028 181.067  1.00  0.00     0.408 P 
ATOM    364  OP1  DA A  15     117.003  73.574 180.779  1.00  0.00    -0.624 OA
ATOM    365  OP2  DA A  15     117.845  75.635 182.056  1.00  0.00    -0.624 OA
ATOM    366  O5'  DA A  15     117.061  75.804 179.683  1.00  0.00    -0.287 OA
ATOM    367  C5'  DA A  15     118.136  76.714 179.452  1.00  0.00     0.216 C 
ATOM    368  C4'  DA A  15     117.601  78.045 178.983  1.00  0.00     0.180 C 
ATOM    369  O4'  DA A  15     116.905  78.685 180.089  1.00  0.00    -0.353 OA
ATOM    370  C1'  DA A  15     117.198  80.071 180.104  1.00  0.00     0.262 C 
ATOM    371  N9   DA A  15     117.937  80.370 181.331  1.00  0.00    -0.294 N 
ATOM    372  C4   DA A  15     118.654  81.514 181.590  1.00  0.00     0.167 A 
ATOM    373  N3   DA A  15     118.820  82.573 180.778  1.00  0.00    -0.222 NA
ATOM    374  C2   DA A  15     119.579  83.497 181.362  1.00  0.00     0.237 A 
ATOM    375  N1   DA A  15     120.147  83.484 182.575  1.00  0.00    -0.222 NA
ATOM    376  C6   DA A  15     119.959  82.405 183.365  1.00  0.00     0.155 A 
ATOM    377  N6   DA A  15     120.522  82.394 184.573  1.00  0.00    -0.382 N 
ATOM    378  H61  DA A  15     120.395  81.598 185.181  1.00  0.00     0.157 HD
ATOM    379  H62  DA A  15     121.077  83.183 184.872  1.00  0.00     0.157 HD
ATOM    380  C5   DA A  15     119.174  81.354 182.860  1.00  0.00     0.149 A 
ATOM    381  N7   DA A  15     118.793  80.131 183.396  1.00  0.00    -0.236 NA
ATOM    382  C8   DA A  15     118.063  79.587 182.451  1.00  0.00     0.214 A 
ATOM    383  C2'  DA A  15     117.972  80.388 178.825  1.00  0.00     0.199 C 
ATOM    384  O2'  DA A  15     117.045  80.708 177.804  1.00  0.00    -0.388 OA
ATOM    385 'HO2  DA A  15     117.308  80.212 177.028  1.00  0.00     0.210 HD
ATOM    386  C3'  DA A  15     118.657  79.053 178.553  1.00  0.00     0.198 C 
ATOM    387  O3'  DA A  15     119.011  78.887 177.181  1.00  0.00    -0.279 OA
ATOM    388  P    DT A  16     120.169  79.800 176.534  1.00  0.00     0.408 P 
ATOM    389  OP1  DT A  16     119.764  81.218 176.700  1.00  0.00    -0.624 OA
ATOM    390  OP2  DT A  16     120.451  79.274 175.174  1.00  0.00    -0.624 OA
ATOM    391  O5'  DT A  16     121.449  79.524 177.447  1.00  0.00    -0.287 OA
ATOM    392  C5'  DT A  16     121.679  80.263 178.647  1.00  0.00     0.216 C 
ATOM    393  C4'  DT A  16     122.309  81.598 178.328  1.00  0.00     0.180 C 
ATOM    394  O4'  DT A  16     122.006  82.510 179.422  1.00  0.00    -0.353 OA
ATOM    395  C1'  DT A  16     123.205  83.050 179.936  1.00  0.00     0.264 C 
ATOM    396  N1   DT A  16     123.559  82.316 181.160  1.00  0.00    -0.280 N 
ATOM    397  C6   DT A  16     122.685  81.415 181.727  1.00  0.00     0.104 A 
ATOM    398  C2   DT A  16     124.798  82.556 181.725  1.00  0.00     0.331 A 
ATOM    399  O2   DT A  16     125.600  83.343 181.258  1.00  0.00    -0.246 OA
ATOM    400  N3   DT A  16     125.067  81.837 182.862  1.00  0.00    -0.275 N 
ATOM    401  H3   DT A  16     125.967  81.993 183.288  1.00  0.00     0.173 HD
ATOM    402  C4   DT A  16     124.242  80.926 183.480  1.00  0.00     0.250 A 
ATOM    403  O4   DT A  16     124.626  80.360 184.503  1.00  0.00    -0.268 OA
ATOM    404  C5   DT A  16     122.981  80.733 182.838  1.00  0.00     0.092 A 
ATOM    405  C2'  DT A  16     124.227  82.932 178.809  1.00  0.00     0.199 C 
ATOM    406  O2'  DT A  16     124.011  83.990 177.894  1.00  0.00    -0.388 OA
ATOM    407 'HO2  DT A  16     124.652  83.888 177.189  1.00  0.00     0.210 HD
ATOM    408  C3'  DT A  16     123.831  81.591 178.205  1.00  0.00     0.198 C 
ATOM    409  O3'  DT A  16     124.246  81.473 176.845  1.00  0.00    -0.279 OA
ATOM    410  P    DG A  17     125.521  80.565 176.472  1.00  0.00     0.408 P 
ATOM    411  OP1  DG A  17     125.484  80.342 175.004  1.00  0.00    -0.624 OA
ATOM    412  OP2  DG A  17     125.558  79.396 177.389  1.00  0.00    -0.624 OA
ATOM    413  O5'  DG A  17     126.775  81.493 176.795  1.00  0.00    -0.287 OA
ATOM    414  C5'  DG A  17     128.106  80.980 176.723  1.00  0.00     0.216 C 
ATOM    415  C4'  DG A  17     129.111  82.111 176.742  1.00  0.00     0.180 C 
ATOM    416  O4'  DG A  17     129.680  82.248 175.416  1.00  0.00    -0.353 OA
ATOM    417  C1'  DG A  17     130.002  83.606 175.176  1.00  0.00     0.262 C 
ATOM    418  N9   DG A  17     129.351  84.023 173.939  1.00  0.00    -0.293 N 
ATOM    419  C4   DG A  17     129.649  85.140 173.198  1.00  0.00     0.187 A 
ATOM    420  N3   DG A  17     130.602  86.051 173.487  1.00  0.00    -0.044 NA
ATOM    421  C2   DG A  17     130.651  87.015 172.587  1.00  0.00     0.703 A 
ATOM    422  N2   DG A  17     131.540  88.002 172.720  1.00  0.00    -0.233 N 
ATOM    423  H21  DG A  17     132.166  87.996 173.513  1.00  0.00     0.174 HD
ATOM    424  H22  DG A  17     131.584  88.746 172.042  1.00  0.00     0.174 HD
ATOM    425  N1   DG A  17     129.834  87.083 171.489  1.00  0.00    -0.153 N 
ATOM    426  H1   DG A  17     129.954  87.864 170.865  1.00  0.00     0.187 HD
ATOM    427  C6   DG A  17     128.847  86.158 171.169  1.00  0.00     0.292 A 
ATOM    428  O6   DG A  17     128.165  86.316 170.150  1.00  0.00    -0.265 OA
ATOM    429  C5   DG A  17     128.780  85.113 172.129  1.00  0.00     0.173 A 
ATOM    430  N7   DG A  17     127.951  84.001 172.194  1.00  0.00    -0.234 NA
ATOM    431  C8   DG A  17     128.326  83.387 173.283  1.00  0.00     0.214 A 
ATOM    432  C2'  DG A  17     129.572  84.424 176.395  1.00  0.00     0.199 C 
ATOM    433  O2'  DG A  17     130.703  84.623 177.222  1.00  0.00    -0.388 OA
ATOM    434 'HO2  DG A  17     130.585  85.474 177.643  1.00  0.00     0.210 HD
ATOM    435  C3'  DG A  17     128.558  83.493 177.057  1.00  0.00     0.198 C 
ATOM    436  O3'  DG A  17     128.466  83.708 178.462  1.00  0.00    -0.279 OA
ATOM    437  P    DG A  18     127.697  85.003 179.024  1.00  0.00     0.408 P 
ATOM    438  OP1  DG A  18     127.900  85.038 180.495  1.00  0.00    -0.624 OA
ATOM    439  OP2  DG A  18     126.320  85.005 178.474  1.00  0.00    -0.624 OA
ATOM    440  O5'  DG A  18     128.485  86.235 178.390  1.00  0.00    -0.287 OA
ATOM    441  C5'  DG A  18     127.877  87.522 178.297  1.00  0.00     0.216 C 
ATOM    442  C4'  DG A  18     128.703  88.427 177.412  1.00  0.00     0.180 C 
ATOM    443  O4'  DG A  18     128.989  87.732 176.167  1.00  0.00    -0.353 OA
ATOM    444  C1'  DG A  18     128.836  88.620 175.075  1.00  0.00     0.262 C 
ATOM    445  N9   DG A  18     127.699  88.171 174.277  1.00  0.00    -0.293 N 
ATOM    446  C4   DG A  18     127.429  88.508 172.971  1.00  0.00     0.187 A 
ATOM    447  N3   DG A  18     128.172  89.321 172.190  1.00  0.00    -0.044 NA
ATOM    448  C2   DG A  18     127.654  89.449 170.981  1.00  0.00     0.703 A 
ATOM    449  N2   DG A  18     128.264  90.222 170.078  1.00  0.00    -0.233 N 
ATOM    450  H21  DG A  18     129.117  90.700 170.328  1.00  0.00     0.174 HD
ATOM    451  H22  DG A  18     127.874  90.329 169.153  1.00  0.00     0.174 HD
ATOM    452  N1   DG A  18     126.502  88.833 170.567  1.00  0.00    -0.153 N 
ATOM    453  H1   DG A  18     126.191  88.994 169.622  1.00  0.00     0.187 HD
ATOM    454  C6   DG A  18     125.720  87.994 171.352  1.00  0.00     0.292 A 
ATOM    455  O6   DG A  18     124.695  87.490 170.879  1.00  0.00    -0.265 OA
ATOM    456  C5   DG A  18     126.262  87.842 172.656  1.00  0.00     0.173 A 
ATOM    457  N7   DG A  18     125.807  87.104 173.740  1.00  0.00    -0.234 NA
ATOM    458  C8   DG A  18     126.689  87.329 174.674  1.00  0.00     0.214 A 
ATOM    459  C2'  DG A  18     128.672  90.026 175.650  1.00  0.00     0.199 C 
ATOM    460  O2'  DG A  18     129.956  90.597 175.824  1.00  0.00    -0.388 OA
ATOM    461 'HO2  DG A  18     129.974  90.966 176.707  1.00  0.00     0.210 HD
ATOM    462  C3'  DG A  18     128.018  89.722 176.992  1.00  0.00     0.198 C 
ATOM    463  O3'  DG A  18     128.231  90.765 177.940  1.00  0.00    -0.279 OA
ATOM    464  P    DT A  19     127.083  91.125 179.009  1.00  0.00     0.408 P 
ATOM    465  OP1  DT A  19     127.719  91.945 180.072  1.00  0.00    -0.624 OA
ATOM    466  OP2  DT A  19     126.371  89.876 179.376  1.00  0.00    -0.624 OA
ATOM    467  O5'  DT A  19     126.075  92.056 178.197  1.00  0.00    -0.287 OA
ATOM    468  C5'  DT A  19     125.215  92.973 178.873  1.00  0.00     0.216 C 
ATOM    469  C4'  DT A  19     124.065  93.371 177.977  1.00  0.00     0.180 C 
ATOM    470  O4'  DT A  19     124.589  94.030 176.801  1.00  0.00    -0.353 OA
ATOM    471  C1'  DT A  19     123.706  93.826 175.715  1.00  0.00     0.264 C 
ATOM    472  N1   DT A  19     124.499  93.408 174.551  1.00  0.00    -0.280 N 
ATOM    473  C6   DT A  19     125.387  92.359 174.633  1.00  0.00     0.104 A 
ATOM    474  C2   DT A  19     124.325  94.102 173.368  1.00  0.00     0.331 A 
ATOM    475  O2   DT A  19     123.549  95.033 173.254  1.00  0.00    -0.246 OA
ATOM    476  N3   DT A  19     125.093  93.663 172.320  1.00  0.00    -0.275 N 
ATOM    477  H3   DT A  19     124.987  94.159 171.449  1.00  0.00     0.173 HD
ATOM    478  C4   DT A  19     125.995  92.626 172.332  1.00  0.00     0.250 A 
ATOM    479  O4   DT A  19     126.614  92.351 171.303  1.00  0.00    -0.268 OA
ATOM    480  C5   DT A  19     126.118  91.958 173.588  1.00  0.00     0.092 A 
ATOM    481  C2'  DT A  19     122.648  92.799 176.135  1.00  0.00     0.199 C 
ATOM    482  O2'  DT A  19     121.438  93.483 176.398  1.00  0.00    -0.388 OA
ATOM    483 'HO2  DT A  19     121.027  93.037 177.139  1.00  0.00     0.210 HD
ATOM    484  C3'  DT A  19     123.241  92.220 177.419  1.00  0.00     0.198 C 
ATOM    485  O3'  DT A  19     122.231  91.820 178.343  1.00  0.00    -0.279 OA
ATOM    486  P    DA A  20     122.132  90.283 178.804  1.00  0.00     0.408 P 
ATOM    487  OP1  DA A  20     123.436  89.913 179.412  1.00  0.00    -0.624 OA
ATOM    488  OP2  DA A  20     121.610  89.496 177.659  1.00  0.00    -0.624 OA
ATOM    489  O5'  DA A  20     121.024  90.294 179.950  1.00  0.00    -0.287 OA
ATOM    490  C5'  DA A  20     121.376  90.505 181.319  1.00  0.00     0.216 C 
ATOM    491  C4'  DA A  20     120.618  91.688 181.876  1.00  0.00     0.180 C 
ATOM    492  O4'  DA A  20     121.130  92.889 181.271  1.00  0.00    -0.353 OA
ATOM    493  C1'  DA A  20     120.147  93.882 181.371  1.00  0.00     0.262 C 
ATOM    494  N9   DA A  20     120.401  94.884 180.337  1.00  0.00    -0.294 N 
ATOM    495  C4   DA A  20     120.171  96.235 180.430  1.00  0.00     0.167 A 
ATOM    496  N3   DA A  20     119.669  96.908 181.480  1.00  0.00    -0.222 NA
ATOM    497  C2   DA A  20     119.587  98.209 181.208  1.00  0.00     0.237 A 
ATOM    498  N1   DA A  20     119.927  98.864 180.090  1.00  0.00    -0.222 NA
ATOM    499  C6   DA A  20     120.430  98.157 179.056  1.00  0.00     0.155 A 
ATOM    500  N6   DA A  20     120.770  98.809 177.945  1.00  0.00    -0.382 N 
ATOM    501  H61  DA A  20     121.149  98.297 177.161  1.00  0.00     0.157 HD
ATOM    502  H62  DA A  20     120.643  99.809 177.889  1.00  0.00     0.157 HD
ATOM    503  C5   DA A  20     120.565  96.769 179.217  1.00  0.00     0.149 A 
ATOM    504  N7   DA A  20     121.034  95.772 178.372  1.00  0.00    -0.236 NA
ATOM    505  C8   DA A  20     120.916  94.677 179.081  1.00  0.00     0.214 A 
ATOM    506  C2'  DA A  20     118.793  93.181 181.243  1.00  0.00     0.199 C 
ATOM    507  O2'  DA A  20     117.916  93.737 182.205  1.00  0.00    -0.388 OA
ATOM    508 'HO2  DA A  20     117.338  93.031 182.499  1.00  0.00     0.210 HD
ATOM    509  C3'  DA A  20     119.118  91.710 181.568  1.00  0.00     0.198 C 
ATOM    510  O3'  DA A  20     118.311  91.215 182.645  1.00  0.00    -0.279 OA
ATOM    511  P    DG A  21     118.759  91.439 184.179  1.00  0.00     0.408 P 
ATOM    512  OP1  DG A  21     119.030  92.885 184.381  1.00  0.00    -0.624 OA
ATOM    513  OP2  DG A  21     119.811  90.444 184.510  1.00  0.00    -0.624 OA
ATOM    514  O5'  DG A  21     117.456  91.063 185.015  1.00  0.00    -0.287 OA
ATOM    515  C5'  DG A  21     116.899  89.750 184.960  1.00  0.00     0.216 C 
ATOM    516  C4'  DG A  21     115.410  89.824 184.716  1.00  0.00     0.180 C 
ATOM    517  O4'  DG A  21     115.185  90.135 183.314  1.00  0.00    -0.353 OA
ATOM    518  C1'  DG A  21     114.616  89.018 182.658  1.00  0.00     0.262 C 
ATOM    519  N9   DG A  21     115.331  88.811 181.402  1.00  0.00    -0.293 N 
ATOM    520  C4   DG A  21     114.894  88.089 180.317  1.00  0.00     0.187 A 
ATOM    521  N3   DG A  21     113.715  87.439 180.217  1.00  0.00    -0.044 NA
ATOM    522  C2   DG A  21     113.584  86.835 179.051  1.00  0.00     0.703 A 
ATOM    523  N2   DG A  21     112.473  86.140 178.786  1.00  0.00    -0.233 N 
ATOM    524  H21  DG A  21     111.747  86.086 179.484  1.00  0.00     0.174 HD
ATOM    525  H22  DG A  21     112.364  85.677 177.896  1.00  0.00     0.174 HD
ATOM    526  N1   DG A  21     114.529  86.864 178.058  1.00  0.00    -0.153 N 
ATOM    527  H1   DG A  21     114.333  86.370 177.202  1.00  0.00     0.187 HD
ATOM    528  C6   DG A  21     115.748  87.526 178.136  1.00  0.00     0.292 A 
ATOM    529  O6   DG A  21     116.529  87.489 177.178  1.00  0.00    -0.265 OA
ATOM    530  C5   DG A  21     115.907  88.181 179.386  1.00  0.00     0.173 A 
ATOM    531  N7   DG A  21     116.958  88.945 179.874  1.00  0.00    -0.234 NA
ATOM    532  C8   DG A  21     116.572  89.296 181.070  1.00  0.00     0.214 A 
ATOM    533  C2'  DG A  21     114.700  87.831 183.617  1.00  0.00     0.199 C 
ATOM    534  O2'  DG A  21     113.563  87.009 183.422  1.00  0.00    -0.388 OA
ATOM    535 'HO2  DG A  21     112.800  87.533 183.664  1.00  0.00     0.210 HD
ATOM    536  C3'  DG A  21     114.643  88.531 184.969  1.00  0.00     0.198 C 
ATOM    537  O3'  DG A  21     113.307  88.797 185.386  1.00  0.00    -0.279 OA
ATOM    538  P    DA A  22     112.774  88.220 186.791  1.00  0.00     0.408 P 
ATOM    539  OP1  DA A  22     113.930  88.132 187.721  1.00  0.00    -0.624 OA
ATOM    540  OP2  DA A  22     111.960  87.009 186.514  1.00  0.00    -0.624 OA
ATOM    541  O5'  DA A  22     111.795  89.358 187.325  1.00  0.00    -0.287 OA
ATOM    542  C5'  DA A  22     112.288  90.651 187.671  1.00  0.00     0.216 C 
ATOM    543  C4'  DA A  22     111.343  91.720 187.173  1.00  0.00     0.180 C 
ATOM    544  O4'  DA A  22     111.626  91.978 185.771  1.00  0.00    -0.353 OA
ATOM    545  C1'  DA A  22     110.413  92.156 185.061  1.00  0.00     0.262 C 
ATOM    546  N9   DA A  22     110.285  91.068 184.091  1.00  0.00    -0.294 N 
ATOM    547  C4   DA A  22     109.204  90.829 183.279  1.00  0.00     0.167 A 
ATOM    548  N3   DA A  22     108.064  91.537 183.211  1.00  0.00    -0.222 NA
ATOM    549  C2   DA A  22     107.238  91.012 182.308  1.00  0.00     0.237 A 
ATOM    550  N1   DA A  22     107.412  89.941 181.523  1.00  0.00    -0.222 NA
ATOM    551  C6   DA A  22     108.568  89.251 181.617  1.00  0.00     0.155 A 
ATOM    552  N6   DA A  22     108.737  88.184 180.836  1.00  0.00    -0.382 N 
ATOM    553  H61  DA A  22     109.592  87.652 180.888  1.00  0.00     0.157 HD
ATOM    554  H62  DA A  22     108.002  87.916 180.199  1.00  0.00     0.157 HD
ATOM    555  C5   DA A  22     109.528  89.706 182.539  1.00  0.00     0.149 A 
ATOM    556  N7   DA A  22     110.792  89.243 182.879  1.00  0.00    -0.236 NA
ATOM    557  C8   DA A  22     111.197  90.083 183.800  1.00  0.00     0.214 A 
ATOM    558  C2'  DA A  22     109.283  92.202 186.089  1.00  0.00     0.199 C 
ATOM    559  O2'  DA A  22     109.103  93.542 186.505  1.00  0.00    -0.388 OA
ATOM    560 'HO2  DA A  22     109.086  93.534 187.463  1.00  0.00     0.210 HD
ATOM    561  C3'  DA A  22     109.867  91.350 187.209  1.00  0.00     0.198 C 
ATOM    562  O3'  DA A  22     109.285  91.643 188.476  1.00  0.00    -0.279 OA
ATOM    563  P    DC A  23     108.439  90.513 189.248  1.00  0.00     0.408 P 
ATOM    564  OP1  DC A  23     108.073  91.063 190.577  1.00  0.00    -0.624 OA
ATOM    565  OP2  DC A  23     109.180  89.228 189.165  1.00  0.00    -0.624 OA
ATOM    566  O5'  DC A  23     107.106  90.372 188.386  1.00  0.00    -0.287 OA
ATOM    567  C5'  DC A  23     106.342  91.519 188.015  1.00  0.00     0.216 C 
ATOM    568  C4'  DC A  23     105.277  91.133 187.016  1.00  0.00     0.180 C 
ATOM    569  O4'  DC A  23     105.876  91.088 185.690  1.00  0.00    -0.353 OA
ATOM    570  C1'  DC A  23     105.471  89.906 185.021  1.00  0.00     0.264 C 
ATOM    571  N1   DC A  23     106.627  88.997 184.938  1.00  0.00    -0.278 N 
ATOM    572  C6   DC A  23     107.660  89.097 185.827  1.00  0.00     0.102 A 
ATOM    573  C2   DC A  23     106.654  88.026 183.933  1.00  0.00     0.352 A 
ATOM    574  O2   DC A  23     105.705  87.957 183.139  1.00  0.00    -0.244 OA
ATOM    575  N3   DC A  23     107.713  87.188 183.853  1.00  0.00    -0.177 NA
ATOM    576  C4   DC A  23     108.715  87.296 184.725  1.00  0.00     0.128 A 
ATOM    577  N4   DC A  23     109.738  86.449 184.606  1.00  0.00    -0.384 N 
ATOM    578  H41  DC A  23     110.516  86.499 185.249  1.00  0.00     0.157 HD
ATOM    579  H42  DC A  23     109.731  85.760 183.870  1.00  0.00     0.157 HD
ATOM    580  C5   DC A  23     108.714  88.274 185.759  1.00  0.00     0.067 A 
ATOM    581  C2'  DC A  23     104.292  89.338 185.807  1.00  0.00     0.199 C 
ATOM    582  O2'  DC A  23     103.105  89.983 185.380  1.00  0.00    -0.388 OA
ATOM    583 'HO2  DC A  23     102.604  90.188 186.170  1.00  0.00     0.210 HD
ATOM    584  C3'  DC A  23     104.665  89.753 187.224  1.00  0.00     0.198 C 
ATOM    585  O3'  DC A  23     103.540  89.806 188.095  1.00  0.00    -0.279 OA
ATOM    586  P    DA A  24     103.390  88.718 189.271  1.00  0.00     0.408 P 
ATOM    587  OP1  DA A  24     102.162  89.056 190.035  1.00  0.00    -0.624 OA
ATOM    588  OP2  DA A  24     104.690  88.612 189.982  1.00  0.00    -0.624 OA
ATOM    589  O5'  DA A  24     103.137  87.348 188.497  1.00  0.00    -0.287 OA
ATOM    590  C5'  DA A  24     102.102  87.236 187.522  1.00  0.00     0.216 C 
ATOM    591  C4'  DA A  24     102.321  86.010 186.668  1.00  0.00     0.180 C 
ATOM    592  O4'  DA A  24     103.482  86.227 185.821  1.00  0.00    -0.353 OA
ATOM    593  C1'  DA A  24     104.217  85.022 185.699  1.00  0.00     0.262 C 
ATOM    594  N9   DA A  24     105.554  85.241 186.254  1.00  0.00    -0.294 N 
ATOM    595  C4   DA A  24     106.635  84.404 186.123  1.00  0.00     0.167 A 
ATOM    596  N3   DA A  24     106.684  83.231 185.470  1.00  0.00    -0.222 NA
ATOM    597  C2   DA A  24     107.899  82.696 185.555  1.00  0.00     0.237 A 
ATOM    598  N1   DA A  24     108.990  83.166 186.174  1.00  0.00    -0.222 NA
ATOM    599  C6   DA A  24     108.908  84.349 186.820  1.00  0.00     0.155 A 
ATOM    600  N6   DA A  24     109.995  84.818 187.431  1.00  0.00    -0.382 N 
ATOM    601  H61  DA A  24     109.960  85.701 187.921  1.00  0.00     0.157 HD
ATOM    602  H62  DA A  24     110.856  84.289 187.407  1.00  0.00     0.157 HD
ATOM    603  C5   DA A  24     107.671  85.017 186.806  1.00  0.00     0.149 A 
ATOM    604  N7   DA A  24     107.250  86.219 187.358  1.00  0.00    -0.236 NA
ATOM    605  C8   DA A  24     105.991  86.304 187.003  1.00  0.00     0.214 A 
ATOM    606  C2'  DA A  24     103.430  83.922 186.413  1.00  0.00     0.199 C 
ATOM    607  O2'  DA A  24     102.572  83.296 185.476  1.00  0.00    -0.388 OA
ATOM    608 'HO2  DA A  24     101.687  83.347 185.841  1.00  0.00     0.210 HD
ATOM    609  C3'  DA A  24     102.638  84.733 187.432  1.00  0.00     0.198 C 
ATOM    610  O3'  DA A  24     101.448  84.068 187.849  1.00  0.00    -0.279 OA
ATOM    611  P    DC A  25     101.291  83.594 189.378  1.00  0.00     0.408 P 
ATOM    612  OP1  DC A  25      99.923  83.039 189.531  1.00  0.00    -0.624 OA
ATOM    613  OP2  DC A  25     101.737  84.699 190.264  1.00  0.00    -0.624 OA
ATOM    614  O5'  DC A  25     102.332  82.396 189.515  1.00  0.00    -0.287 OA
ATOM    615  C5'  DC A  25     102.237  81.241 188.682  1.00  0.00     0.216 C 
ATOM    616  C4'  DC A  25     103.173  80.161 189.177  1.00  0.00     0.180 C 
ATOM    617  O4'  DC A  25     104.446  80.290 188.485  1.00  0.00    -0.353 OA
ATOM    618  C1'  DC A  25     105.506  80.008 189.382  1.00  0.00     0.264 C 
ATOM    619  N1   DC A  25     106.314  81.225 189.556  1.00  0.00    -0.278 N 
ATOM    620  C6   DC A  25     105.831  82.451 189.189  1.00  0.00     0.102 A 
ATOM    621  C2   DC A  25     107.590  81.110 190.112  1.00  0.00     0.352 A 
ATOM    622  O2   DC A  25     108.006  79.987 190.430  1.00  0.00    -0.244 OA
ATOM    623  N3   DC A  25     108.337  82.220 190.291  1.00  0.00    -0.177 NA
ATOM    624  C4   DC A  25     107.857  83.411 189.934  1.00  0.00     0.128 A 
ATOM    625  N4   DC A  25     108.632  84.477 190.134  1.00  0.00    -0.384 N 
ATOM    626  H41  DC A  25     108.305  85.397 189.879  1.00  0.00     0.157 HD
ATOM    627  H42  DC A  25     109.546  84.360 190.549  1.00  0.00     0.157 HD
ATOM    628  C5   DC A  25     106.561  83.560 189.358  1.00  0.00     0.067 A 
ATOM    629  C2'  DC A  25     104.882  79.510 190.684  1.00  0.00     0.199 C 
ATOM    630  O2'  DC A  25     104.725  78.106 190.601  1.00  0.00    -0.388 OA
ATOM    631 'HO2  DC A  25     105.167  77.732 191.365  1.00  0.00     0.210 HD
ATOM    632  C3'  DC A  25     103.540  80.229 190.653  1.00  0.00     0.198 C 
ATOM    633  O3'  DC A  25     102.565  79.598 191.478  1.00  0.00    -0.279 OA
ATOM    634  P    DG A  26     102.612  79.809 193.072  1.00  0.00     0.408 P 
ATOM    635  OP1  DG A  26     101.347  79.268 193.631  1.00  0.00    -0.624 OA
ATOM    636  OP2  DG A  26     102.994  81.218 193.350  1.00  0.00    -0.624 OA
ATOM    637  O5'  DG A  26     103.809  78.871 193.553  1.00  0.00    -0.287 OA
ATOM    638  C5'  DG A  26     103.704  77.451 193.476  1.00  0.00     0.216 C 
ATOM    639  C4'  DG A  26     104.915  76.801 194.105  1.00  0.00     0.180 C 
ATOM    640  O4'  DG A  26     106.113  77.226 193.397  1.00  0.00    -0.353 OA
ATOM    641  C1'  DG A  26     107.188  77.351 194.314  1.00  0.00     0.262 C 
ATOM    642  N9   DG A  26     107.641  78.739 194.313  1.00  0.00    -0.293 N 
ATOM    643  C4   DG A  26     108.843  79.209 194.785  1.00  0.00     0.187 A 
ATOM    644  N3   DG A  26     109.825  78.464 195.336  1.00  0.00    -0.044 NA
ATOM    645  C2   DG A  26     110.860  79.202 195.696  1.00  0.00     0.703 A 
ATOM    646  N2   DG A  26     111.923  78.621 196.258  1.00  0.00    -0.233 N 
ATOM    647  H21  DG A  26     111.921  77.621 196.402  1.00  0.00     0.174 HD
ATOM    648  H22  DG A  26     112.723  79.173 196.533  1.00  0.00     0.174 HD
ATOM    649  N1   DG A  26     110.930  80.562 195.531  1.00  0.00    -0.153 N 
ATOM    650  H1   DG A  26     111.767  81.033 195.841  1.00  0.00     0.187 HD
ATOM    651  C6   DG A  26     109.934  81.350 194.966  1.00  0.00     0.292 A 
ATOM    652  O6   DG A  26     110.101  82.571 194.864  1.00  0.00    -0.265 OA
ATOM    653  C5   DG A  26     108.813  80.571 194.574  1.00  0.00     0.173 A 
ATOM    654  N7   DG A  26     107.616  80.951 193.980  1.00  0.00    -0.234 NA
ATOM    655  C8   DG A  26     106.955  79.834 193.847  1.00  0.00     0.214 A 
ATOM    656  C2'  DG A  26     106.682  76.879 195.677  1.00  0.00     0.199 C 
ATOM    657  O2'  DG A  26     106.913  75.487 195.792  1.00  0.00    -0.388 OA
ATOM    658 'HO2  DG A  26     106.134  75.111 196.202  1.00  0.00     0.210 HD
ATOM    659  C3'  DG A  26     105.194  77.182 195.551  1.00  0.00     0.198 C 
ATOM    660  O3'  DG A  26     104.403  76.428 196.465  1.00  0.00    -0.279 OA
ATOM    661  P    DC A  27     103.911  77.101 197.840  1.00  0.00     0.408 P 
ATOM    662  OP1  DC A  27     103.146  76.072 198.589  1.00  0.00    -0.624 OA
ATOM    663  OP2  DC A  27     103.273  78.404 197.523  1.00  0.00    -0.624 OA
ATOM    664  O5'  DC A  27     105.263  77.392 198.634  1.00  0.00    -0.287 OA
ATOM    665  C5'  DC A  27     106.128  76.327 199.025  1.00  0.00     0.216 C 
ATOM    666  C4'  DC A  27     107.486  76.871 199.410  1.00  0.00     0.180 C 
ATOM    667  O4'  DC A  27     108.038  77.615 198.293  1.00  0.00    -0.353 OA
ATOM    668  C1'  DC A  27     108.851  78.669 198.782  1.00  0.00     0.264 C 
ATOM    669  N1   DC A  27     108.367  79.938 198.212  1.00  0.00    -0.278 N 
ATOM    670  C6   DC A  27     107.167  80.005 197.559  1.00  0.00     0.102 A 
ATOM    671  C2   DC A  27     109.157  81.082 198.350  1.00  0.00     0.352 A 
ATOM    672  O2   DC A  27     110.241  80.995 198.945  1.00  0.00    -0.244 OA
ATOM    673  N3   DC A  27     108.725  82.252 197.833  1.00  0.00    -0.177 NA
ATOM    674  C4   DC A  27     107.555  82.307 197.195  1.00  0.00     0.128 A 
ATOM    675  N4   DC A  27     107.173  83.482 196.698  1.00  0.00    -0.384 N 
ATOM    676  H41  DC A  27     106.295  83.567 196.207  1.00  0.00     0.157 HD
ATOM    677  H42  DC A  27     107.770  84.290 196.810  1.00  0.00     0.157 HD
ATOM    678  C5   DC A  27     106.727  81.157 197.037  1.00  0.00     0.067 A 
ATOM    679  C2'  DC A  27     108.799  78.629 200.312  1.00  0.00     0.199 C 
ATOM    680  O2'  DC A  27     109.915  77.893 200.778  1.00  0.00    -0.388 OA
ATOM    681 'HO2  DC A  27     109.588  77.281 201.439  1.00  0.00     0.210 HD
ATOM    682  C3'  DC A  27     107.497  77.873 200.553  1.00  0.00     0.198 C 
ATOM    683  O3'  DC A  27     107.474  77.226 201.822  1.00  0.00    -0.279 OA
ATOM    684  P    DC A  28     106.962  78.028 203.121  1.00  0.00     0.408 P 
ATOM    685  OP1  DC A  28     106.976  77.076 204.262  1.00  0.00    -0.624 OA
ATOM    686  OP2  DC A  28     105.704  78.734 202.771  1.00  0.00    -0.624 OA
ATOM    687  O5'  DC A  28     108.093  79.124 203.371  1.00  0.00    -0.287 OA
ATOM    688  C5'  DC A  28     109.272  78.809 204.109  1.00  0.00     0.216 C 
ATOM    689  C4'  DC A  28     110.006  80.075 204.491  1.00  0.00     0.180 C 
ATOM    690  O4'  DC A  28     110.463  80.742 203.282  1.00  0.00    -0.353 OA
ATOM    691  C1'  DC A  28     110.360  82.146 203.444  1.00  0.00     0.264 C 
ATOM    692  N1   DC A  28     109.408  82.662 202.447  1.00  0.00    -0.278 N 
ATOM    693  C6   DC A  28     108.432  81.858 201.930  1.00  0.00     0.102 A 
ATOM    694  C2   DC A  28     109.517  83.992 202.035  1.00  0.00     0.352 A 
ATOM    695  O2   DC A  28     110.409  84.703 202.522  1.00  0.00    -0.244 OA
ATOM    696  N3   DC A  28     108.648  84.475 201.120  1.00  0.00    -0.177 NA
ATOM    697  C4   DC A  28     107.701  83.681 200.619  1.00  0.00     0.128 A 
ATOM    698  N4   DC A  28     106.868  84.200 199.717  1.00  0.00    -0.384 N 
ATOM    699  H41  DC A  28     106.137  83.637 199.310  1.00  0.00     0.157 HD
ATOM    700  H42  DC A  28     106.977  85.167 199.440  1.00  0.00     0.157 HD
ATOM    701  C5   DC A  28     107.565  82.320 201.020  1.00  0.00     0.067 A 
ATOM    702  C2'  DC A  28     109.936  82.411 204.888  1.00  0.00     0.199 C 
ATOM    703  O2'  DC A  28     111.100  82.533 205.683  1.00  0.00    -0.388 OA
ATOM    704 'HO2  DC A  28     111.025  81.886 206.386  1.00  0.00     0.210 HD
ATOM    705  C3'  DC A  28     109.177  81.130 205.209  1.00  0.00     0.198 C 
ATOM    706  O3'  DC A  28     109.103  80.882 206.612  1.00  0.00    -0.279 OA
ATOM    707  P    DG A  29     108.006  81.652 207.502  1.00  0.00     0.408 P 
ATOM    708  OP1  DG A  29     108.141  81.150 208.893  1.00  0.00    -0.624 OA
ATOM    709  OP2  DG A  29     106.694  81.559 206.812  1.00  0.00    -0.624 OA
ATOM    710  O5'  DG A  29     108.482  83.173 207.475  1.00  0.00    -0.287 OA
ATOM    711  C5'  DG A  29     109.728  83.564 208.053  1.00  0.00     0.216 C 
ATOM    712  C4'  DG A  29     109.768  85.062 208.252  1.00  0.00     0.180 C 
ATOM    713  O4'  DG A  29     110.068  85.708 206.988  1.00  0.00    -0.353 OA
ATOM    714  C1'  DG A  29     109.477  86.995 206.966  1.00  0.00     0.262 C 
ATOM    715  N9   DG A  29     108.679  87.119 205.750  1.00  0.00    -0.293 N 
ATOM    716  C4   DG A  29     108.428  88.275 205.054  1.00  0.00     0.187 A 
ATOM    717  N3   DG A  29     108.887  89.506 205.367  1.00  0.00    -0.044 NA
ATOM    718  C2   DG A  29     108.472  90.420 204.509  1.00  0.00     0.703 A 
ATOM    719  N2   DG A  29     108.838  91.696 204.670  1.00  0.00    -0.233 N 
ATOM    720  H21  DG A  29     109.429  91.946 205.449  1.00  0.00     0.174 HD
ATOM    721  H22  DG A  29     108.529  92.401 204.017  1.00  0.00     0.174 HD
ATOM    722  N1   DG A  29     107.669  90.154 203.431  1.00  0.00    -0.153 N 
ATOM    723  H1   DG A  29     107.407  90.924 202.834  1.00  0.00     0.187 HD
ATOM    724  C6   DG A  29     107.183  88.898 203.088  1.00  0.00     0.292 A 
ATOM    725  O6   DG A  29     106.458  88.772 202.093  1.00  0.00    -0.265 OA
ATOM    726  C5   DG A  29     107.623  87.901 203.999  1.00  0.00     0.173 A 
ATOM    727  N7   DG A  29     107.378  86.534 204.027  1.00  0.00    -0.234 NA
ATOM    728  C8   DG A  29     108.024  86.114 205.081  1.00  0.00     0.214 A 
ATOM    729  C2'  DG A  29     108.659  87.161 208.249  1.00  0.00     0.199 C 
ATOM    730  O2'  DG A  29     109.438  87.878 209.188  1.00  0.00    -0.388 OA
ATOM    731 'HO2  DG A  29     108.981  88.706 209.343  1.00  0.00     0.210 HD
ATOM    732  C3'  DG A  29     108.461  85.710 208.680  1.00  0.00     0.198 C 
ATOM    733  O3'  DG A  29     108.247  85.583 210.084  1.00  0.00    -0.279 OA
ATOM    734  P    DG A  30     106.760  85.726 210.681  1.00  0.00     0.408 P 
ATOM    735  OP1  DG A  30     106.863  85.618 212.160  1.00  0.00    -0.624 OA
ATOM    736  OP2  DG A  30     105.868  84.799 209.940  1.00  0.00    -0.624 OA
ATOM    737  O5'  DG A  30     106.335  87.220 210.322  1.00  0.00    -0.287 OA
ATOM    738  C5'  DG A  30     106.685  88.312 211.172  1.00  0.00     0.216 C 
ATOM    739  C4'  DG A  30     106.615  89.616 210.409  1.00  0.00     0.180 C 
ATOM    740  O4'  DG A  30     107.073  89.393 209.047  1.00  0.00    -0.353 OA
ATOM    741  C1'  DG A  30     106.283  90.144 208.145  1.00  0.00     0.262 C 
ATOM    742  N9   DG A  30     105.585  89.215 207.260  1.00  0.00    -0.293 N 
ATOM    743  C4   DG A  30     105.056  89.505 206.026  1.00  0.00     0.187 A 
ATOM    744  N3   DG A  30     105.088  90.706 205.412  1.00  0.00    -0.044 NA
ATOM    745  C2   DG A  30     104.494  90.672 204.233  1.00  0.00     0.703 A 
ATOM    746  N2   DG A  30     104.431  91.782 203.492  1.00  0.00    -0.233 N 
ATOM    747  H21  DG A  30     104.839  92.636 203.847  1.00  0.00     0.174 HD
ATOM    748  H22  DG A  30     103.985  91.772 202.588  1.00  0.00     0.174 HD
ATOM    749  N1   DG A  30     103.918  89.551 203.694  1.00  0.00    -0.153 N 
ATOM    750  H1   DG A  30     103.492  89.626 202.783  1.00  0.00     0.187 HD
ATOM    751  C6   DG A  30     103.873  88.303 204.306  1.00  0.00     0.292 A 
ATOM    752  O6   DG A  30     103.328  87.356 203.730  1.00  0.00    -0.265 OA
ATOM    753  C5   DG A  30     104.505  88.323 205.577  1.00  0.00     0.173 A 
ATOM    754  N7   DG A  30     104.683  87.311 206.510  1.00  0.00    -0.234 NA
ATOM    755  C8   DG A  30     105.326  87.886 207.488  1.00  0.00     0.214 A 
ATOM    756  C2'  DG A  30     105.347  91.027 208.972  1.00  0.00     0.199 C 
ATOM    757  O2'  DG A  30     105.990  92.264 209.216  1.00  0.00    -0.388 OA
ATOM    758 'HO2  DG A  30     105.826  92.481 210.133  1.00  0.00     0.210 HD
ATOM    759  C3'  DG A  30     105.221  90.211 210.253  1.00  0.00     0.198 C 
ATOM    760  O3'  DG A  30     104.870  91.018 211.376  1.00  0.00    -0.279 OA
ATOM    761  P    DA A  31     103.321  91.298 211.708  1.00  0.00     0.408 P 
ATOM    762  OP1  DA A  31     103.282  92.307 212.797  1.00  0.00    -0.624 OA
ATOM    763  OP2  DA A  31     102.641  89.991 211.895  1.00  0.00    -0.624 OA
ATOM    764  O5'  DA A  31     102.755  91.972 210.380  1.00  0.00    -0.287 OA
ATOM    765  C5'  DA A  31     102.987  93.352 210.096  1.00  0.00     0.216 C 
ATOM    766  C4'  DA A  31     102.055  93.824 209.004  1.00  0.00     0.180 C 
ATOM    767  O4'  DA A  31     102.375  93.110 207.778  1.00  0.00    -0.353 OA
ATOM    768  C1'  DA A  31     101.184  92.688 207.141  1.00  0.00     0.262 C 
ATOM    769  N9   DA A  31     101.118  91.229 207.207  1.00  0.00    -0.294 N 
ATOM    770  C4   DA A  31     100.401  90.408 206.370  1.00  0.00     0.167 A 
ATOM    771  N3   DA A  31      99.625  90.776 205.336  1.00  0.00    -0.222 NA
ATOM    772  C2   DA A  31      99.084  89.708 204.753  1.00  0.00     0.237 A 
ATOM    773  N1   DA A  31      99.221  88.413 205.065  1.00  0.00    -0.222 NA
ATOM    774  C6   DA A  31     100.007  88.080 206.109  1.00  0.00     0.155 A 
ATOM    775  N6   DA A  31     100.142  86.789 206.417  1.00  0.00    -0.382 N 
ATOM    776  H61  DA A  31     100.725  86.514 207.195  1.00  0.00     0.157 HD
ATOM    777  H62  DA A  31      99.653  86.094 205.874  1.00  0.00     0.157 HD
ATOM    778  C5   DA A  31     100.639  89.119 206.812  1.00  0.00     0.149 A 
ATOM    779  N7   DA A  31     101.492  89.125 207.907  1.00  0.00    -0.236 NA
ATOM    780  C8   DA A  31     101.747  90.395 208.100  1.00  0.00     0.214 A 
ATOM    781  C2'  DA A  31     100.021  93.387 207.842  1.00  0.00     0.199 C 
ATOM    782  O2'  DA A  31      99.811  94.642 207.221  1.00  0.00    -0.388 OA
ATOM    783 'HO2  DA A  31     100.651  95.103 207.234  1.00  0.00     0.210 HD
ATOM    784  C3'  DA A  31     100.576  93.551 209.252  1.00  0.00     0.198 C 
ATOM    785  O3'  DA A  31      99.963  94.629 209.953  1.00  0.00    -0.279 OA
ATOM    786  P    DT A  32      98.699  94.348 210.907  1.00  0.00     0.408 P 
ATOM    787  OP1  DT A  32      98.261  95.660 211.450  1.00  0.00    -0.624 OA
ATOM    788  OP2  DT A  32      99.051  93.248 211.841  1.00  0.00    -0.624 OA
ATOM    789  O5'  DT A  32      97.568  93.823 209.913  1.00  0.00    -0.287 OA
ATOM    790  C5'  DT A  32      96.367  93.235 210.411  1.00  0.00     0.216 C 
ATOM    791  C4'  DT A  32      95.281  93.299 209.362  1.00  0.00     0.180 C 
ATOM    792  O4'  DT A  32      95.049  94.688 209.011  1.00  0.00    -0.353 OA
ATOM    793  C1'  DT A  32      94.738  94.787 207.633  1.00  0.00     0.264 C 
ATOM    794  N1   DT A  32      95.715  95.686 207.002  1.00  0.00    -0.280 N 
ATOM    795  C6   DT A  32      96.950  95.913 207.570  1.00  0.00     0.104 A 
ATOM    796  C2   DT A  32      95.353  96.298 205.816  1.00  0.00     0.331 A 
ATOM    797  O2   DT A  32      94.275  96.120 205.279  1.00  0.00    -0.246 OA
ATOM    798  N3   DT A  32      96.302  97.130 205.280  1.00  0.00    -0.275 N 
ATOM    799  H3   DT A  32      96.058  97.587 204.415  1.00  0.00     0.173 HD
ATOM    800  C4   DT A  32      97.549  97.404 205.793  1.00  0.00     0.250 A 
ATOM    801  O4   DT A  32      98.288  98.186 205.195  1.00  0.00    -0.268 OA
ATOM    802  C5   DT A  32      97.851  96.730 207.016  1.00  0.00     0.092 A 
ATOM    803  C2'  DT A  32      94.728  93.374 207.045  1.00  0.00     0.199 C 
ATOM    804  O2'  DT A  32      93.399  92.890 207.061  1.00  0.00    -0.388 OA
ATOM    805 'HO2  DT A  32      93.128  92.808 206.146  1.00  0.00     0.210 HD
ATOM    806  C3'  DT A  32      95.606  92.619 208.040  1.00  0.00     0.198 C 
ATOM    807  O3'  DT A  32      95.297  91.228 208.089  1.00  0.00    -0.279 OA
ATOM    808  P    DT A  33      96.132  90.190 207.189  1.00  0.00     0.408 P 
ATOM    809  OP1  DT A  33      95.657  88.826 207.534  1.00  0.00    -0.624 OA
ATOM    810  OP2  DT A  33      97.574  90.517 207.317  1.00  0.00    -0.624 OA
ATOM    811  O5'  DT A  33      95.675  90.515 205.697  1.00  0.00    -0.287 OA
ATOM    812  C5'  DT A  33      94.304  90.412 205.311  1.00  0.00     0.216 C 
ATOM    813  C4'  DT A  33      94.125  90.892 203.890  1.00  0.00     0.180 C 
ATOM    814  O4'  DT A  33      94.184  92.343 203.876  1.00  0.00    -0.353 OA
ATOM    815  C1'  DT A  33      94.913  92.783 202.745  1.00  0.00     0.264 C 
ATOM    816  N1   DT A  33      96.121  93.475 203.217  1.00  0.00    -0.280 N 
ATOM    817  C6   DT A  33      96.862  92.974 204.264  1.00  0.00     0.104 A 
ATOM    818  C2   DT A  33      96.490  94.643 202.576  1.00  0.00     0.331 A 
ATOM    819  O2   DT A  33      95.859  95.118 201.649  1.00  0.00    -0.246 OA
ATOM    820  N3   DT A  33      97.627  95.236 203.063  1.00  0.00    -0.275 N 
ATOM    821  H3   DT A  33      97.920  96.086 202.606  1.00  0.00     0.173 HD
ATOM    822  C4   DT A  33      98.412  94.792 204.102  1.00  0.00     0.250 A 
ATOM    823  O4   DT A  33      99.412  95.434 204.419  1.00  0.00    -0.268 OA
ATOM    824  C5   DT A  33      97.963  93.581 204.712  1.00  0.00     0.092 A 
ATOM    825  C2'  DT A  33      95.204  91.561 201.874  1.00  0.00     0.199 C 
ATOM    826  O2'  DT A  33      94.146  91.395 200.950  1.00  0.00    -0.388 OA
ATOM    827 'HO2  DT A  33      93.509  90.816 201.373  1.00  0.00     0.210 HD
ATOM    828  C3'  DT A  33      95.202  90.445 202.911  1.00  0.00     0.198 C 
ATOM    829  O3'  DT A  33      94.886  89.179 202.338  1.00  0.00    -0.279 OA
ATOM    830  P    DT A  34      95.869  87.930 202.567  1.00  0.00     0.408 P 
ATOM    831  OP1  DT A  34      95.686  87.010 201.414  1.00  0.00    -0.624 OA
ATOM    832  OP2  DT A  34      95.664  87.424 203.948  1.00  0.00    -0.624 OA
ATOM    833  O5'  DT A  34      97.329  88.565 202.478  1.00  0.00    -0.287 OA
ATOM    834  C5'  DT A  34      98.086  88.510 201.271  1.00  0.00     0.216 C 
ATOM    835  C4'  DT A  34      97.707  89.657 200.364  1.00  0.00     0.180 C 
ATOM    836  O4'  DT A  34      97.986  90.908 201.055  1.00  0.00    -0.353 OA
ATOM    837  C1'  DT A  34      99.000  91.617 200.371  1.00  0.00     0.264 C 
ATOM    838  N1   DT A  34      99.905  92.211 201.367  1.00  0.00    -0.280 N 
ATOM    839  C6   DT A  34     100.099  93.572 201.425  1.00  0.00     0.104 A 
ATOM    840  C2   DT A  34     100.553  91.362 202.246  1.00  0.00     0.331 A 
ATOM    841  O2   DT A  34     100.423  90.152 202.220  1.00  0.00    -0.246 OA
ATOM    842  N3   DT A  34     101.369  91.983 203.157  1.00  0.00    -0.275 N 
ATOM    843  H3   DT A  34     101.830  91.388 203.828  1.00  0.00     0.173 HD
ATOM    844  C4   DT A  34     101.608  93.332 203.270  1.00  0.00     0.250 A 
ATOM    845  O4   DT A  34     102.376  93.737 204.141  1.00  0.00    -0.268 OA
ATOM    846  C5   DT A  34     100.910  94.141 202.321  1.00  0.00     0.092 A 
ATOM    847  C2'  DT A  34      99.672  90.625 199.425  1.00  0.00     0.199 C 
ATOM    848  O2'  DT A  34     100.163  91.336 198.302  1.00  0.00    -0.388 OA
ATOM    849 'HO2  DT A  34      99.943  90.830 197.522  1.00  0.00     0.210 HD
ATOM    850  C3'  DT A  34      98.494  89.729 199.059  1.00  0.00     0.198 C 
ATOM    851  O3'  DT A  34      97.698  90.268 198.005  1.00  0.00    -0.279 OA
ATOM    852  P    DA A  35      97.922  89.765 196.493  1.00  0.00     0.408 P 
ATOM    853  OP1  DA A  35      98.109  88.293 196.532  1.00  0.00    -0.624 OA
ATOM    854  OP2  DA A  35      98.968  90.621 195.877  1.00  0.00    -0.624 OA
ATOM    855  O5'  DA A  35      96.533  90.065 195.772  1.00  0.00    -0.287 OA
ATOM    856  C5'  DA A  35      95.309  89.540 196.287  1.00  0.00     0.216 C 
ATOM    857  C4'  DA A  35      94.456  88.991 195.164  1.00  0.00     0.180 C 
ATOM    858  O4'  DA A  35      93.153  89.638 195.222  1.00  0.00    -0.353 OA
ATOM    859  C1'  DA A  35      92.783  90.083 193.933  1.00  0.00     0.262 C 
ATOM    860  N9   DA A  35      92.919  91.539 193.891  1.00  0.00    -0.294 N 
ATOM    861  C4   DA A  35      92.186  92.404 193.116  1.00  0.00     0.167 A 
ATOM    862  N3   DA A  35      91.207  92.092 192.251  1.00  0.00    -0.222 NA
ATOM    863  C2   DA A  35      90.723  93.190 191.674  1.00  0.00     0.237 A 
ATOM    864  N1   DA A  35      91.082  94.470 191.850  1.00  0.00    -0.222 NA
ATOM    865  C6   DA A  35      92.069  94.748 192.729  1.00  0.00     0.155 A 
ATOM    866  N6   DA A  35      92.423  96.023 192.906  1.00  0.00    -0.382 N 
ATOM    867  H61  DA A  35      93.158  96.263 193.557  1.00  0.00     0.157 HD
ATOM    868  H62  DA A  35      91.956  96.753 192.388  1.00  0.00     0.157 HD
ATOM    869  C5   DA A  35      92.665  93.669 193.406  1.00  0.00     0.149 A 
ATOM    870  N7   DA A  35      93.680  93.603 194.352  1.00  0.00    -0.236 NA
ATOM    871  C8   DA A  35      93.791  92.322 194.604  1.00  0.00     0.214 A 
ATOM    872  C2'  DA A  35      93.684  89.352 192.942  1.00  0.00     0.199 C 
ATOM    873  O2'  DA A  35      93.136  88.073 192.687  1.00  0.00    -0.388 OA
ATOM    874 'HO2  DA A  35      93.868  87.455 192.703  1.00  0.00     0.210 HD
ATOM    875  C3'  DA A  35      94.970  89.249 193.750  1.00  0.00     0.198 C 
ATOM    876  O3'  DA A  35      95.811  88.191 193.294  1.00  0.00    -0.279 OA
ATOM    877  P    DG A  36      96.706  88.396 191.973  1.00  0.00     0.408 P 
ATOM    878  OP1  DG A  36      97.495  87.152 191.783  1.00  0.00    -0.624 OA
ATOM    879  OP2  DG A  36      97.408  89.700 192.077  1.00  0.00    -0.624 OA
ATOM    880  O5'  DG A  36      95.641  88.494 190.791  1.00  0.00    -0.287 OA
ATOM    881  C5'  DG A  36      95.014  87.324 190.266  1.00  0.00     0.216 C 
ATOM    882  C4'  DG A  36      94.024  87.697 189.185  1.00  0.00     0.180 C 
ATOM    883  O4'  DG A  36      93.249  88.845 189.618  1.00  0.00    -0.353 OA
ATOM    884  C1'  DG A  36      92.899  89.632 188.493  1.00  0.00     0.262 C 
ATOM    885  N9   DG A  36      93.375  90.994 188.717  1.00  0.00    -0.293 N 
ATOM    886  C4   DG A  36      92.895  92.136 188.123  1.00  0.00     0.187 A 
ATOM    887  N3   DG A  36      91.892  92.200 187.221  1.00  0.00    -0.044 NA
ATOM    888  C2   DG A  36      91.658  93.441 186.832  1.00  0.00     0.703 A 
ATOM    889  N2   DG A  36      90.693  93.688 185.940  1.00  0.00    -0.233 N 
ATOM    890  H21  DG A  36      90.149  92.922 185.570  1.00  0.00     0.174 HD
ATOM    891  H22  DG A  36      90.505  94.633 185.639  1.00  0.00     0.174 HD
ATOM    892  N1   DG A  36      92.352  94.533 187.288  1.00  0.00    -0.153 N 
ATOM    893  H1   DG A  36      92.094  95.438 186.924  1.00  0.00     0.187 HD
ATOM    894  C6   DG A  36      93.387  94.492 188.214  1.00  0.00     0.292 A 
ATOM    895  O6   DG A  36      93.947  95.540 188.556  1.00  0.00    -0.265 OA
ATOM    896  C5   DG A  36      93.650  93.165 188.644  1.00  0.00     0.173 A 
ATOM    897  N7   DG A  36      94.587  92.680 189.549  1.00  0.00    -0.234 NA
ATOM    898  C8   DG A  36      94.386  91.390 189.557  1.00  0.00     0.214 A 
ATOM    899  C2'  DG A  36      93.499  88.969 187.250  1.00  0.00     0.199 C 
ATOM    900  O2'  DG A  36      92.520  88.134 186.660  1.00  0.00    -0.388 OA
ATOM    901 'HO2  DG A  36      92.995  87.429 186.220  1.00  0.00     0.210 HD
ATOM    902  C3'  DG A  36      94.625  88.142 187.860  1.00  0.00     0.198 C 
ATOM    903  O3'  DG A  36      94.984  87.027 187.048  1.00  0.00    -0.279 OA
ATOM    904  P    DG A  37      96.154  87.178 185.954  1.00  0.00     0.408 P 
ATOM    905  OP1  DG A  37      96.375  85.835 185.357  1.00  0.00    -0.624 OA
ATOM    906  OP2  DG A  37      97.294  87.897 186.578  1.00  0.00    -0.624 OA
ATOM    907  O5'  DG A  37      95.520  88.117 184.834  1.00  0.00    -0.287 OA
ATOM    908  C5'  DG A  37      94.628  87.591 183.852  1.00  0.00     0.216 C 
ATOM    909  C4'  DG A  37      93.969  88.717 183.087  1.00  0.00     0.180 C 
ATOM    910  O4'  DG A  37      93.573  89.758 184.017  1.00  0.00    -0.353 OA
ATOM    911  C1'  DG A  37      93.603  91.012 183.361  1.00  0.00     0.262 C 
ATOM    912  N9   DG A  37      94.413  91.933 184.155  1.00  0.00    -0.293 N 
ATOM    913  C4   DG A  37      94.418  93.304 184.059  1.00  0.00     0.187 A 
ATOM    914  N3   DG A  37      93.669  94.041 183.213  1.00  0.00    -0.044 NA
ATOM    915  C2   DG A  37      93.895  95.333 183.354  1.00  0.00     0.703 A 
ATOM    916  N2   DG A  37      93.233  96.205 182.594  1.00  0.00    -0.233 N 
ATOM    917  H21  DG A  37      92.564  95.864 181.920  1.00  0.00     0.174 HD
ATOM    918  H22  DG A  37      93.406  97.196 182.689  1.00  0.00     0.174 HD
ATOM    919  N1   DG A  37      94.784  95.867 184.251  1.00  0.00    -0.153 N 
ATOM    920  H1   DG A  37      94.881  96.871 184.273  1.00  0.00     0.187 HD
ATOM    921  C6   DG A  37      95.566  95.131 185.133  1.00  0.00     0.292 A 
ATOM    922  O6   DG A  37      96.338  95.716 185.903  1.00  0.00    -0.265 OA
ATOM    923  C5   DG A  37      95.334  93.734 184.995  1.00  0.00     0.173 A 
ATOM    924  N7   DG A  37      95.894  92.657 185.669  1.00  0.00    -0.234 NA
ATOM    925  C8   DG A  37      95.318  91.613 185.138  1.00  0.00     0.214 A 
ATOM    926  C2'  DG A  37      94.142  90.794 181.945  1.00  0.00     0.199 C 
ATOM    927  O2'  DG A  37      93.042  90.705 181.058  1.00  0.00    -0.388 OA
ATOM    928 'HO2  DG A  37      93.349  90.217 180.294  1.00  0.00     0.210 HD
ATOM    929  C3'  DG A  37      94.851  89.449 182.087  1.00  0.00     0.198 C 
ATOM    930  O3'  DG A  37      94.933  88.753 180.845  1.00  0.00    -0.279 OA
ATOM    931  P    DT A  38      96.371  88.441 180.193  1.00  0.00     0.408 P 
ATOM    932  OP1  DT A  38      96.142  88.110 178.762  1.00  0.00    -0.624 OA
ATOM    933  OP2  DT A  38      97.070  87.465 181.067  1.00  0.00    -0.624 OA
ATOM    934  O5'  DT A  38      97.149  89.830 180.280  1.00  0.00    -0.287 OA
ATOM    935  C5'  DT A  38      97.575  90.518 179.102  1.00  0.00     0.216 C 
ATOM    936  C4'  DT A  38      96.534  91.534 178.684  1.00  0.00     0.180 C 
ATOM    937  O4'  DT A  38      95.769  91.925 179.861  1.00  0.00    -0.353 OA
ATOM    938  C1'  DT A  38      95.713  93.335 179.953  1.00  0.00     0.264 C 
ATOM    939  N1   DT A  38      96.606  93.766 181.040  1.00  0.00    -0.280 N 
ATOM    940  C6   DT A  38      97.221  92.852 181.867  1.00  0.00     0.104 A 
ATOM    941  C2   DT A  38      96.808  95.127 181.211  1.00  0.00     0.331 A 
ATOM    942  O2   DT A  38      96.286  95.966 180.503  1.00  0.00    -0.246 OA
ATOM    943  N3   DT A  38      97.646  95.466 182.243  1.00  0.00    -0.275 N 
ATOM    944  H3   DT A  38      97.810  96.451 182.383  1.00  0.00     0.173 HD
ATOM    945  C4   DT A  38      98.288  94.609 183.106  1.00  0.00     0.250 A 
ATOM    946  O4   DT A  38      99.025  95.068 183.978  1.00  0.00    -0.268 OA
ATOM    947  C5   DT A  38      98.029  93.223 182.867  1.00  0.00     0.092 A 
ATOM    948  C2'  DT A  38      96.079  93.875 178.572  1.00  0.00     0.199 C 
ATOM    949  O2'  DT A  38      94.920  93.866 177.758  1.00  0.00    -0.388 OA
ATOM    950 'HO2  DT A  38      94.973  93.088 177.201  1.00  0.00     0.210 HD
ATOM    951  C3'  DT A  38      97.090  92.833 178.106  1.00  0.00     0.198 C 
ATOM    952  O3'  DT A  38      97.192  92.770 176.684  1.00  0.00    -0.279 OA
ATOM    953  P    DT A  39      97.421  94.120 175.838  1.00  0.00     0.408 P 
ATOM    954  OP1  DT A  39      96.105  94.515 175.274  1.00  0.00    -0.624 OA
ATOM    955  OP2  DT A  39      98.166  95.072 176.701  1.00  0.00    -0.624 OA
ATOM    956  O5'  DT A  39      98.352  93.671 174.624  1.00  0.00    -0.287 OA
ATOM    957  C5'  DT A  39      99.767  93.561 174.776  1.00  0.00     0.216 C 
ATOM    958  C4'  DT A  39     100.440  94.843 174.338  1.00  0.00     0.180 C 
ATOM    959  O4'  DT A  39     100.063  95.901 175.264  1.00  0.00    -0.353 OA
ATOM    960  C1'  DT A  39     101.209  96.634 175.654  1.00  0.00     0.264 C 
ATOM    961  N1   DT A  39     101.495  96.333 177.065  1.00  0.00    -0.280 N 
ATOM    962  C6   DT A  39     101.523  95.035 177.530  1.00  0.00     0.104 A 
ATOM    963  C2   DT A  39     101.729  97.397 177.915  1.00  0.00     0.331 A 
ATOM    964  O2   DT A  39     101.715  98.555 177.543  1.00  0.00    -0.246 OA
ATOM    965  N3   DT A  39     101.981  97.053 179.218  1.00  0.00    -0.275 N 
ATOM    966  H3   DT A  39     102.143  97.817 179.853  1.00  0.00     0.173 HD
ATOM    967  C4   DT A  39     102.021  95.782 179.749  1.00  0.00     0.250 A 
ATOM    968  O4   DT A  39     102.257  95.634 180.946  1.00  0.00    -0.268 OA
ATOM    969  C5   DT A  39     101.770  94.739 178.811  1.00  0.00     0.092 A 
ATOM    970  C2'  DT A  39     102.337  96.253 174.700  1.00  0.00     0.199 C 
ATOM    971  O2'  DT A  39     102.266  97.092 173.562  1.00  0.00    -0.388 OA
ATOM    972 'HO2  DT A  39     102.026  96.539 172.818  1.00  0.00     0.210 HD
ATOM    973  C3'  DT A  39     101.965  94.816 174.351  1.00  0.00     0.198 C 
ATOM    974  O3'  DT A  39     102.491  94.418 173.088  1.00  0.00    -0.279 OA
ATOM    975  P    DG A  40     104.081  94.250 172.902  1.00  0.00     0.408 P 
ATOM    976  OP1  DG A  40     104.596  93.558 174.107  1.00  0.00    -0.624 OA
ATOM    977  OP2  DG A  40     104.645  95.568 172.518  1.00  0.00    -0.624 OA
ATOM    978  O5'  DG A  40     104.220  93.256 171.664  1.00  0.00    -0.287 OA
ATOM    979  C5'  DG A  40     104.156  93.738 170.322  1.00  0.00     0.216 C 
ATOM    980  C4'  DG A  40     105.065  92.925 169.434  1.00  0.00     0.180 C 
ATOM    981  O4'  DG A  40     104.255  92.023 168.632  1.00  0.00    -0.353 OA
ATOM    982  C1'  DG A  40     104.772  91.956 167.315  1.00  0.00     0.262 C 
ATOM    983  N9   DG A  40     103.772  92.502 166.403  1.00  0.00    -0.293 N 
ATOM    984  C4   DG A  40     103.367  91.959 165.207  1.00  0.00     0.187 A 
ATOM    985  N3   DG A  40     103.827  90.815 164.658  1.00  0.00    -0.044 NA
ATOM    986  C2   DG A  40     103.244  90.553 163.502  1.00  0.00     0.703 A 
ATOM    987  N2   DG A  40     103.581  89.453 162.823  1.00  0.00    -0.233 N 
ATOM    988  H21  DG A  40     104.281  88.835 163.208  1.00  0.00     0.174 HD
ATOM    989  H22  DG A  40     103.147  89.244 161.936  1.00  0.00     0.174 HD
ATOM    990  N1   DG A  40     102.287  91.348 162.925  1.00  0.00    -0.153 N 
ATOM    991  H1   DG A  40     101.905  91.060 162.039  1.00  0.00     0.187 HD
ATOM    992  C6   DG A  40     101.797  92.529 163.469  1.00  0.00     0.292 A 
ATOM    993  O6   DG A  40     100.932  93.170 162.862  1.00  0.00    -0.265 OA
ATOM    994  C5   DG A  40     102.414  92.826 164.715  1.00  0.00     0.173 A 
ATOM    995  N7   DG A  40     102.223  93.894 165.584  1.00  0.00    -0.234 NA
ATOM    996  C8   DG A  40     103.047  93.658 166.566  1.00  0.00     0.214 A 
ATOM    997  C2'  DG A  40     106.098  92.719 167.302  1.00  0.00     0.199 C 
ATOM    998  O2'  DG A  40     107.144  91.822 167.629  1.00  0.00    -0.388 OA
ATOM    999 'HO2  DG A  40     107.515  92.124 168.459  1.00  0.00     0.210 HD
ATOM   1000  C3'  DG A  40     105.870  93.729 168.420  1.00  0.00     0.198 C 
ATOM   1001  O3'  DG A  40     107.092  94.201 168.984  1.00  0.00    -0.279 OA
ATOM   1002  P    DC A  41     107.567  95.715 168.717  1.00  0.00     0.408 P 
ATOM   1003  OP1  DC A  41     106.359  96.542 168.465  1.00  0.00    -0.624 OA
ATOM   1004  OP2  DC A  41     108.658  95.688 167.710  1.00  0.00    -0.624 OA
ATOM   1005  O5'  DC A  41     108.190  96.174 170.111  1.00  0.00    -0.287 OA
ATOM   1006  C5'  DC A  41     107.361  96.398 171.250  1.00  0.00     0.216 C 
ATOM   1007  C4'  DC A  41     108.201  96.839 172.427  1.00  0.00     0.180 C 
ATOM   1008  O4'  DC A  41     109.013  97.975 172.022  1.00  0.00    -0.353 OA
ATOM   1009  C1'  DC A  41     108.560  99.148 172.673  1.00  0.00     0.264 C 
ATOM   1010  N1   DC A  41     108.449 100.218 171.668  1.00  0.00    -0.278 N 
ATOM   1011  C6   DC A  41     108.064  99.936 170.387  1.00  0.00     0.102 A 
ATOM   1012  C2   DC A  41     108.745 101.533 172.041  1.00  0.00     0.352 A 
ATOM   1013  O2   DC A  41     109.090 101.762 173.210  1.00  0.00    -0.244 OA
ATOM   1014  N3   DC A  41     108.647 102.519 171.123  1.00  0.00    -0.177 NA
ATOM   1015  C4   DC A  41     108.270 102.232 169.876  1.00  0.00     0.128 A 
ATOM   1016  N4   DC A  41     108.186 103.238 169.006  1.00  0.00    -0.384 N 
ATOM   1017  H41  DC A  41     107.903 103.061 168.054  1.00  0.00     0.157 HD
ATOM   1018  H42  DC A  41     108.407 104.175 169.309  1.00  0.00     0.157 HD
ATOM   1019  C5   DC A  41     107.960 100.903 169.467  1.00  0.00     0.067 A 
ATOM   1020  C2'  DC A  41     107.239  98.811 173.362  1.00  0.00     0.199 C 
ATOM   1021  O2'  DC A  41     107.151  99.548 174.568  1.00  0.00    -0.388 OA
ATOM   1022 'HO2  DC A  41     108.025  99.546 174.963  1.00  0.00     0.210 HD
ATOM   1023  C3'  DC A  41     107.415  97.323 173.641  1.00  0.00     0.198 C 
ATOM   1024  O3'  DC A  41     108.122  97.081 174.856  1.00  0.00    -0.279 OA
ATOM   1025  P    DC A  42     107.979  95.660 175.596  1.00  0.00     0.408 P 
ATOM   1026  OP1  DC A  42     109.350  95.229 175.978  1.00  0.00    -0.624 OA
ATOM   1027  OP2  DC A  42     107.137  94.770 174.759  1.00  0.00    -0.624 OA
ATOM   1028  O5'  DC A  42     107.175  96.003 176.930  1.00  0.00    -0.287 OA
ATOM   1029  C5'  DC A  42     107.356  95.234 178.118  1.00  0.00     0.216 C 
ATOM   1030  C4'  DC A  42     106.025  94.998 178.795  1.00  0.00     0.180 C 
ATOM   1031  O4'  DC A  42     105.097  94.451 177.818  1.00  0.00    -0.353 OA
ATOM   1032  C1'  DC A  42     104.816  93.099 178.124  1.00  0.00     0.264 C 
ATOM   1033  N1   DC A  42     104.916  92.315 176.880  1.00  0.00    -0.278 N 
ATOM   1034  C6   DC A  42     103.790  91.853 176.258  1.00  0.00     0.102 A 
ATOM   1035  C2   DC A  42     106.182  92.047 176.340  1.00  0.00     0.352 A 
ATOM   1036  O2   DC A  42     107.189  92.474 176.922  1.00  0.00    -0.244 OA
ATOM   1037  N3   DC A  42     106.273  91.331 175.196  1.00  0.00    -0.177 NA
ATOM   1038  C4   DC A  42     105.167  90.890 174.596  1.00  0.00     0.128 A 
ATOM   1039  N4   DC A  42     105.309  90.197 173.468  1.00  0.00    -0.384 N 
ATOM   1040  H41  DC A  42     104.498  89.848 172.981  1.00  0.00     0.157 HD
ATOM   1041  H42  DC A  42     106.235  90.030 173.100  1.00  0.00     0.157 HD
ATOM   1042  C5   DC A  42     103.868  91.143 175.125  1.00  0.00     0.067 A 
ATOM   1043  C2'  DC A  42     105.788  92.664 179.221  1.00  0.00     0.199 C 
ATOM   1044  O2'  DC A  42     105.124  91.747 180.071  1.00  0.00    -0.388 OA
ATOM   1045 'HO2  DC A  42     104.859  92.237 180.849  1.00  0.00     0.210 HD
ATOM   1046  C3'  DC A  42     106.046  93.986 179.935  1.00  0.00     0.198 C 
ATOM   1047  O3'  DC A  42     105.048  94.277 180.913  1.00  0.00    -0.279 OA
ATOM   1048  P    DG A  43     105.429  95.150 182.212  1.00  0.00     0.408 P 
ATOM   1049  OP1  DG A  43     106.746  94.669 182.702  1.00  0.00    -0.624 OA
ATOM   1050  OP2  DG A  43     104.260  95.144 183.128  1.00  0.00    -0.624 OA
ATOM   1051  O5'  DG A  43     105.614  96.627 181.643  1.00  0.00    -0.287 OA
ATOM   1052  C5'  DG A  43     105.293  97.771 182.437  1.00  0.00     0.216 C 
ATOM   1053  C4'  DG A  43     106.415  98.071 183.406  1.00  0.00     0.180 C 
ATOM   1054  O4'  DG A  43     107.686  97.926 182.711  1.00  0.00    -0.353 OA
ATOM   1055  C1'  DG A  43     108.292  99.196 182.551  1.00  0.00     0.262 C 
ATOM   1056  N9   DG A  43     108.790  99.294 181.182  1.00  0.00    -0.293 N 
ATOM   1057  C4   DG A  43     108.075  99.078 180.028  1.00  0.00     0.187 A 
ATOM   1058  N3   DG A  43     106.771  98.738 179.952  1.00  0.00    -0.044 NA
ATOM   1059  C2   DG A  43     106.370  98.596 178.702  1.00  0.00     0.703 A 
ATOM   1060  N2   DG A  43     105.103  98.259 178.447  1.00  0.00    -0.233 N 
ATOM   1061  H21  DG A  43     104.468  98.115 179.218  1.00  0.00     0.174 HD
ATOM   1062  H22  DG A  43     104.789  98.142 177.496  1.00  0.00     0.174 HD
ATOM   1063  N1   DG A  43     107.180  98.775 177.610  1.00  0.00    -0.153 N 
ATOM   1064  H1   DG A  43     106.776  98.641 176.695  1.00  0.00     0.187 HD
ATOM   1065  C6   DG A  43     108.524  99.126 177.661  1.00  0.00     0.292 A 
ATOM   1066  O6   DG A  43     109.164  99.262 176.612  1.00  0.00    -0.265 OA
ATOM   1067  C5   DG A  43     108.972  99.280 178.999  1.00  0.00     0.173 A 
ATOM   1068  N7   DG A  43     110.224  99.620 179.496  1.00  0.00    -0.234 NA
ATOM   1069  C8   DG A  43     110.067  99.616 180.792  1.00  0.00     0.214 A 
ATOM   1070  C2'  DG A  43     107.242 100.244 182.913  1.00  0.00     0.199 C 
ATOM   1071  O2'  DG A  43     107.892 101.368 183.479  1.00  0.00    -0.388 OA
ATOM   1072 'HO2  DG A  43     107.228 101.861 183.966  1.00  0.00     0.210 HD
ATOM   1073  C3'  DG A  43     106.431  99.492 183.959  1.00  0.00     0.198 C 
ATOM   1074  O3'  DG A  43     107.036  99.538 185.251  1.00  0.00    -0.279 OA
ATOM   1075  P    DA A  44     106.362 100.410 186.423  1.00  0.00     0.408 P 
ATOM   1076  OP1  DA A  44     107.386 100.587 187.484  1.00  0.00    -0.624 OA
ATOM   1077  OP2  DA A  44     105.052  99.798 186.765  1.00  0.00    -0.624 OA
ATOM   1078  O5'  DA A  44     106.093 101.830 185.752  1.00  0.00    -0.287 OA
ATOM   1079  C5'  DA A  44     105.652 102.945 186.531  1.00  0.00     0.216 C 
ATOM   1080  C4'  DA A  44     105.002 103.984 185.642  1.00  0.00     0.180 C 
ATOM   1081  O4'  DA A  44     105.177 103.580 184.252  1.00  0.00    -0.353 OA
ATOM   1082  C1'  DA A  44     103.917 103.493 183.621  1.00  0.00     0.262 C 
ATOM   1083  N9   DA A  44     103.508 102.089 183.603  1.00  0.00    -0.294 N 
ATOM   1084  C4   DA A  44     103.140 101.350 182.504  1.00  0.00     0.167 A 
ATOM   1085  N3   DA A  44     103.074 101.761 181.225  1.00  0.00    -0.222 NA
ATOM   1086  C2   DA A  44     102.684 100.765 180.431  1.00  0.00     0.237 A 
ATOM   1087  N1   DA A  44     102.372  99.501 180.749  1.00  0.00    -0.222 NA
ATOM   1088  C6   DA A  44     102.443  99.125 182.044  1.00  0.00     0.155 A 
ATOM   1089  N6   DA A  44     102.125  97.872 182.365  1.00  0.00    -0.382 N 
ATOM   1090  H61  DA A  44     102.172  97.580 183.330  1.00  0.00     0.157 HD
ATOM   1091  H62  DA A  44     101.854  97.208 181.654  1.00  0.00     0.157 HD
ATOM   1092  C5   DA A  44     102.849 100.086 182.982  1.00  0.00     0.149 A 
ATOM   1093  N7   DA A  44     103.027 100.026 184.356  1.00  0.00    -0.236 NA
ATOM   1094  C8   DA A  44     103.416 101.236 184.675  1.00  0.00     0.214 A 
ATOM   1095  C2'  DA A  44     102.990 104.403 184.418  1.00  0.00     0.199 C 
ATOM   1096  O2'  DA A  44     103.212 105.743 184.024  1.00  0.00    -0.388 OA
ATOM   1097 'HO2  DA A  44     103.138 106.277 184.816  1.00  0.00     0.210 HD
ATOM   1098  C3'  DA A  44     103.495 104.154 185.835  1.00  0.00     0.198 C 
ATOM   1099  O3'  DA A  44     103.192 105.240 186.707  1.00  0.00    -0.279 OA
ATOM   1100  P    DA A  45     101.835 105.217 187.570  1.00  0.00     0.408 P 
ATOM   1101  OP1  DA A  45     101.659 106.573 188.152  1.00  0.00    -0.624 OA
ATOM   1102  OP2  DA A  45     101.876 104.035 188.468  1.00  0.00    -0.624 OA
ATOM   1103  O5'  DA A  45     100.686 104.984 186.489  1.00  0.00    -0.287 OA
ATOM   1104  C5'  DA A  45     100.287 106.029 185.603  1.00  0.00     0.216 C 
ATOM   1105  C4'  DA A  45      99.572 105.454 184.400  1.00  0.00     0.180 C 
ATOM   1106  O4'  DA A  45     100.303 104.301 183.908  1.00  0.00    -0.353 OA
ATOM   1107  C1'  DA A  45      99.399 103.381 183.319  1.00  0.00     0.262 C 
ATOM   1108  N9   DA A  45      99.601 102.072 183.942  1.00  0.00    -0.294 N 
ATOM   1109  C4   DA A  45      99.132 100.863 183.483  1.00  0.00     0.167 A 
ATOM   1110  N3   DA A  45      98.393 100.638 182.383  1.00  0.00    -0.222 NA
ATOM   1111  C2   DA A  45      98.126  99.339 182.251  1.00  0.00     0.237 A 
ATOM   1112  N1   DA A  45      98.488  98.315 183.037  1.00  0.00    -0.222 NA
ATOM   1113  C6   DA A  45      99.231  98.576 184.134  1.00  0.00     0.155 A 
ATOM   1114  N6   DA A  45      99.593  97.557 184.915  1.00  0.00    -0.382 N 
ATOM   1115  H61  DA A  45     100.148  97.728 185.741  1.00  0.00     0.157 HD
ATOM   1116  H62  DA A  45      99.318  96.613 184.681  1.00  0.00     0.157 HD
ATOM   1117  C5   DA A  45      99.581  99.916 184.386  1.00  0.00     0.149 A 
ATOM   1118  N7   DA A  45     100.315 100.516 185.400  1.00  0.00    -0.236 NA
ATOM   1119  C8   DA A  45     100.297 101.791 185.092  1.00  0.00     0.214 A 
ATOM   1120  C2'  DA A  45      97.985 103.941 183.492  1.00  0.00     0.199 C 
ATOM   1121  O2'  DA A  45      97.631 104.632 182.309  1.00  0.00    -0.388 OA
ATOM   1122 'HO2  DA A  45      97.383 105.520 182.567  1.00  0.00     0.210 HD
ATOM   1123  C3'  DA A  45      98.176 104.908 184.656  1.00  0.00     0.198 C 
ATOM   1124  O3'  DA A  45      97.202 105.949 184.666  1.00  0.00    -0.279 OA
ATOM   1125  P    DC A  46      95.792 105.720 185.407  1.00  0.00     0.408 P 
ATOM   1126  OP1  DC A  46      95.016 106.980 185.283  1.00  0.00    -0.624 OA
ATOM   1127  OP2  DC A  46      96.056 105.150 186.752  1.00  0.00    -0.624 OA
ATOM   1128  O5'  DC A  46      95.072 104.603 184.528  1.00  0.00    -0.287 OA
ATOM   1129  C5'  DC A  46      94.715 104.853 183.169  1.00  0.00     0.216 C 
ATOM   1130  C4'  DC A  46      93.914 103.696 182.620  1.00  0.00     0.180 C 
ATOM   1131  O4'  DC A  46      94.810 102.582 182.362  1.00  0.00    -0.353 OA
ATOM   1132  C1'  DC A  46      94.153 101.363 182.654  1.00  0.00     0.264 C 
ATOM   1133  N1   DC A  46      94.918 100.660 183.697  1.00  0.00    -0.278 N 
ATOM   1134  C6   DC A  46      95.661 101.354 184.610  1.00  0.00     0.102 A 
ATOM   1135  C2   DC A  46      94.876  99.265 183.737  1.00  0.00     0.352 A 
ATOM   1136  O2   DC A  46      94.193  98.662 182.899  1.00  0.00    -0.244 OA
ATOM   1137  N3   DC A  46      95.578  98.609 184.687  1.00  0.00    -0.177 NA
ATOM   1138  C4   DC A  46      96.304  99.295 185.571  1.00  0.00     0.128 A 
ATOM   1139  N4   DC A  46      96.982  98.605 186.486  1.00  0.00    -0.384 N 
ATOM   1140  H41  DC A  46      97.543  99.090 187.172  1.00  0.00     0.157 HD
ATOM   1141  H42  DC A  46      96.935  97.595 186.492  1.00  0.00     0.157 HD
ATOM   1142  C5   DC A  46      96.366 100.718 185.555  1.00  0.00     0.067 A 
ATOM   1143  C2'  DC A  46      92.716 101.691 183.065  1.00  0.00     0.199 C 
ATOM   1144  O2'  DC A  46      91.894 101.623 181.915  1.00  0.00    -0.388 OA
ATOM   1145 'HO2  DC A  46      91.050 101.265 182.192  1.00  0.00     0.210 HD
ATOM   1146  C3'  DC A  46      92.865 103.124 183.563  1.00  0.00     0.198 C 
ATOM   1147  O3'  DC A  46      91.645 103.857 183.492  1.00  0.00    -0.279 OA
ATOM   1148  P    DC A  47      90.596 103.782 184.708  1.00  0.00     0.408 P 
ATOM   1149  OP1  DC A  47      89.566 104.825 184.471  1.00  0.00    -0.624 OA
ATOM   1150  OP2  DC A  47      91.352 103.776 185.986  1.00  0.00    -0.624 OA
ATOM   1151  O5'  DC A  47      89.908 102.354 184.536  1.00  0.00    -0.287 OA
ATOM   1152  C5'  DC A  47      88.928 102.128 183.523  1.00  0.00     0.216 C 
ATOM   1153  C4'  DC A  47      88.481 100.684 183.542  1.00  0.00     0.180 C 
ATOM   1154  O4'  DC A  47      89.643  99.826 183.388  1.00  0.00    -0.353 OA
ATOM   1155  C1'  DC A  47      89.484  98.660 184.178  1.00  0.00     0.264 C 
ATOM   1156  N1   DC A  47      90.574  98.615 185.166  1.00  0.00    -0.278 N 
ATOM   1157  C6   DC A  47      91.165  99.765 185.610  1.00  0.00     0.102 A 
ATOM   1158  C2   DC A  47      90.999  97.373 185.648  1.00  0.00     0.352 A 
ATOM   1159  O2   DC A  47      90.446  96.345 185.232  1.00  0.00    -0.244 OA
ATOM   1160  N3   DC A  47      91.999  97.324 186.555  1.00  0.00    -0.177 NA
ATOM   1161  C4   DC A  47      92.570  98.452 186.980  1.00  0.00     0.128 A 
ATOM   1162  N4   DC A  47      93.553  98.354 187.873  1.00  0.00    -0.384 N 
ATOM   1163  H41  DC A  47      94.012  99.184 188.219  1.00  0.00     0.157 HD
ATOM   1164  H42  DC A  47      93.840  97.443 188.205  1.00  0.00     0.157 HD
ATOM   1165  C5   DC A  47      92.158  99.732 186.507  1.00  0.00     0.067 A 
ATOM   1166  C2'  DC A  47      88.091  98.711 184.804  1.00  0.00     0.199 C 
ATOM   1167  O2'  DC A  47      87.185  98.050 183.940  1.00  0.00    -0.388 OA
ATOM   1168 'HO2  DC A  47      86.311  98.161 184.314  1.00  0.00     0.210 HD
ATOM   1169  C3'  DC A  47      87.835 100.214 184.837  1.00  0.00     0.198 C 
ATOM   1170  O3'  DC A  47      86.446 100.531 184.878  1.00  0.00    -0.279 OA
ATOM   1171  P    DT A  48      85.746 100.881 186.283  1.00  0.00     0.408 P 
ATOM   1172  OP1  DT A  48      84.424 101.486 185.979  1.00  0.00    -0.624 OA
ATOM   1173  OP2  DT A  48      86.719 101.628 187.120  1.00  0.00    -0.624 OA
ATOM   1174  O5'  DT A  48      85.500  99.457 186.957  1.00  0.00    -0.287 OA
ATOM   1175  C5'  DT A  48      84.686  98.473 186.319  1.00  0.00     0.216 C 
ATOM   1176  C4'  DT A  48      85.057  97.092 186.807  1.00  0.00     0.180 C 
ATOM   1177  O4'  DT A  48      86.496  96.983 186.896  1.00  0.00    -0.353 OA
ATOM   1178  C1'  DT A  48      86.827  96.000 187.857  1.00  0.00     0.264 C 
ATOM   1179  N1   DT A  48      87.924  96.517 188.689  1.00  0.00    -0.280 N 
ATOM   1180  C6   DT A  48      88.216  97.861 188.732  1.00  0.00     0.104 A 
ATOM   1181  C2   DT A  48      88.655  95.606 189.430  1.00  0.00     0.331 A 
ATOM   1182  O2   DT A  48      88.432  94.408 189.417  1.00  0.00    -0.246 OA
ATOM   1183  N3   DT A  48      89.658  96.148 190.189  1.00  0.00    -0.275 N 
ATOM   1184  H3   DT A  48      90.203  95.504 190.744  1.00  0.00     0.173 HD
ATOM   1185  C4   DT A  48      90.004  97.476 190.281  1.00  0.00     0.250 A 
ATOM   1186  O4   DT A  48      90.941  97.808 191.006  1.00  0.00    -0.268 OA
ATOM   1187  C5   DT A  48      89.205  98.354 189.483  1.00  0.00     0.092 A 
ATOM   1188  C2'  DT A  48      85.563  95.657 188.654  1.00  0.00     0.199 C 
ATOM   1189  O2'  DT A  48      85.120  94.377 188.248  1.00  0.00    -0.388 OA
ATOM   1190 'HO2  DT A  48      84.377  94.505 187.655  1.00  0.00     0.210 HD
ATOM   1191  C3'  DT A  48      84.584  96.746 188.210  1.00  0.00     0.198 C 
ATOM   1192  O3'  DT A  48      83.234  96.289 188.189  1.00  0.00    -0.279 OA
ATOM   1193  P    DC A  49      82.362  96.297 189.542  1.00  0.00     0.408 P 
ATOM   1194  OP1  DC A  49      80.944  96.493 189.146  1.00  0.00    -0.624 OA
ATOM   1195  OP2  DC A  49      82.989  97.236 190.508  1.00  0.00    -0.624 OA
ATOM   1196  O5'  DC A  49      82.518  94.817 190.113  1.00  0.00    -0.287 OA
ATOM   1197  C5'  DC A  49      82.220  93.681 189.304  1.00  0.00     0.216 C 
ATOM   1198  C4'  DC A  49      82.623  92.414 190.020  1.00  0.00     0.180 C 
ATOM   1199  O4'  DC A  49      82.620  91.322 189.056  1.00  0.00    -0.353 OA
ATOM   1200  C1'  DC A  49      83.903  90.735 188.997  1.00  0.00     0.264 C 
ATOM   1201  N1   DC A  49      84.176  90.345 187.603  1.00  0.00    -0.278 N 
ATOM   1202  C6   DC A  49      84.493  89.053 187.290  1.00  0.00     0.102 A 
ATOM   1203  C2   DC A  49      84.108  91.318 186.598  1.00  0.00     0.352 A 
ATOM   1204  O2   DC A  49      83.811  92.482 186.903  1.00  0.00    -0.244 OA
ATOM   1205  N3   DC A  49      84.366  90.964 185.318  1.00  0.00    -0.177 NA
ATOM   1206  C4   DC A  49      84.677  89.702 185.025  1.00  0.00     0.128 A 
ATOM   1207  N4   DC A  49      84.923  89.402 183.750  1.00  0.00    -0.384 N 
ATOM   1208  H41  DC A  49      85.162  88.459 183.485  1.00  0.00     0.157 HD
ATOM   1209  H42  DC A  49      84.868  90.129 183.051  1.00  0.00     0.157 HD
ATOM   1210  C5   DC A  49      84.749  88.690 186.027  1.00  0.00     0.067 A 
ATOM   1211  C2'  DC A  49      84.882  91.762 189.561  1.00  0.00     0.199 C 
ATOM   1212  O2'  DC A  49      85.973  91.072 190.142  1.00  0.00    -0.388 OA
ATOM   1213 'HO2  DC A  49      85.930  91.239 191.084  1.00  0.00     0.210 HD
ATOM   1214  C3'  DC A  49      84.024  92.434 190.628  1.00  0.00     0.198 C 
ATOM   1215  O3'  DC A  49      84.061  91.736 191.871  1.00  0.00    -0.279 OA
ATOM   1216  P    DT A  50      83.697  92.509 193.235  1.00  0.00     0.408 P 
ATOM   1217  OP1  DT A  50      83.369  91.478 194.252  1.00  0.00    -0.624 OA
ATOM   1218  OP2  DT A  50      82.711  93.578 192.933  1.00  0.00    -0.624 OA
ATOM   1219  O5'  DT A  50      85.066  93.203 193.664  1.00  0.00    -0.287 OA
ATOM   1220  C5'  DT A  50      86.280  92.454 193.751  1.00  0.00     0.216 C 
ATOM   1221  C4'  DT A  50      86.915  92.645 195.111  1.00  0.00     0.180 C 
ATOM   1222  O4'  DT A  50      87.313  94.039 195.247  1.00  0.00    -0.353 OA
ATOM   1223  C1'  DT A  50      86.573  94.650 196.288  1.00  0.00     0.264 C 
ATOM   1224  N1   DT A  50      86.186  95.998 195.850  1.00  0.00    -0.280 N 
ATOM   1225  C6   DT A  50      85.611  96.209 194.618  1.00  0.00     0.104 A 
ATOM   1226  C2   DT A  50      86.421  97.050 196.717  1.00  0.00     0.331 A 
ATOM   1227  O2   DT A  50      86.929  96.903 197.815  1.00  0.00    -0.246 OA
ATOM   1228  N3   DT A  50      86.038  98.282 196.251  1.00  0.00    -0.275 N 
ATOM   1229  H3   DT A  50      86.194  99.067 196.865  1.00  0.00     0.173 HD
ATOM   1230  C4   DT A  50      85.459  98.564 195.035  1.00  0.00     0.250 A 
ATOM   1231  O4   DT A  50      85.175  99.728 194.757  1.00  0.00    -0.268 OA
ATOM   1232  C5   DT A  50      85.250  97.425 194.196  1.00  0.00     0.092 A 
ATOM   1233  C2'  DT A  50      85.393  93.731 196.590  1.00  0.00     0.199 C 
ATOM   1234  O2'  DT A  50      85.052  93.862 197.957  1.00  0.00    -0.388 OA
ATOM   1235 'HO2  DT A  50      85.376  93.075 198.397  1.00  0.00     0.210 HD
ATOM   1236  C3'  DT A  50      86.005  92.366 196.304  1.00  0.00     0.198 C 
ATOM   1237  O3'  DT A  50      86.742  91.866 197.416  1.00  0.00    -0.279 OA
ATOM   1238  P    DT A  51      87.016  90.287 197.553  1.00  0.00     0.408 P 
ATOM   1239  OP1  DT A  51      87.090  89.721 196.183  1.00  0.00    -0.624 OA
ATOM   1240  OP2  DT A  51      86.040  89.732 198.526  1.00  0.00    -0.624 OA
ATOM   1241  O5'  DT A  51      88.471  90.209 198.197  1.00  0.00    -0.287 OA
ATOM   1242  C5'  DT A  51      88.894  89.058 198.926  1.00  0.00     0.216 C 
ATOM   1243  C4'  DT A  51      89.983  89.434 199.902  1.00  0.00     0.180 C 
ATOM   1244  O4'  DT A  51      91.156  89.861 199.152  1.00  0.00    -0.353 OA
ATOM   1245  C1'  DT A  51      91.704  91.026 199.743  1.00  0.00     0.264 C 
ATOM   1246  N1   DT A  51      91.474  92.163 198.840  1.00  0.00    -0.280 N 
ATOM   1247  C6   DT A  51      90.804  92.006 197.647  1.00  0.00     0.104 A 
ATOM   1248  C2   DT A  51      91.953  93.401 199.230  1.00  0.00     0.331 A 
ATOM   1249  O2   DT A  51      92.541  93.585 200.279  1.00  0.00    -0.246 OA
ATOM   1250  N3   DT A  51      91.712  94.419 198.345  1.00  0.00    -0.275 N 
ATOM   1251  H3   DT A  51      92.055  95.329 198.615  1.00  0.00     0.173 HD
ATOM   1252  C4   DT A  51      91.053  94.334 197.141  1.00  0.00     0.250 A 
ATOM   1253  O4   DT A  51      90.935  95.342 196.445  1.00  0.00    -0.268 OA
ATOM   1254  C5   DT A  51      90.584  93.025 196.812  1.00  0.00     0.092 A 
ATOM   1255  C2'  DT A  51      91.039  91.184 201.108  1.00  0.00     0.199 C 
ATOM   1256  O2'  DT A  51      91.741  90.402 202.054  1.00  0.00    -0.388 OA
ATOM   1257 'HO2  DT A  51      91.718  90.885 202.880  1.00  0.00     0.210 HD
ATOM   1258  C3'  DT A  51      89.659  90.607 200.819  1.00  0.00     0.198 C 
ATOM   1259  O3'  DT A  51      88.983  90.184 201.999  1.00  0.00    -0.279 OA
ATOM   1260  P    DC A  52      87.922  91.164 202.707  1.00  0.00     0.408 P 
ATOM   1261  OP1  DC A  52      87.136  90.351 203.670  1.00  0.00    -0.624 OA
ATOM   1262  OP2  DC A  52      87.216  91.940 201.655  1.00  0.00    -0.624 OA
ATOM   1263  O5'  DC A  52      88.827  92.178 203.539  1.00  0.00    -0.287 OA
ATOM   1264  C5'  DC A  52      89.560  91.743 204.682  1.00  0.00     0.216 C 
ATOM   1265  C4'  DC A  52      90.460  92.851 205.180  1.00  0.00     0.180 C 
ATOM   1266  O4'  DC A  52      91.392  93.220 204.121  1.00  0.00    -0.353 OA
ATOM   1267  C1'  DC A  52      91.508  94.631 204.056  1.00  0.00     0.264 C 
ATOM   1268  N1   DC A  52      90.874  95.093 202.808  1.00  0.00    -0.278 N 
ATOM   1269  C6   DC A  52      90.011  94.284 202.124  1.00  0.00     0.102 A 
ATOM   1270  C2   DC A  52      91.169  96.373 202.328  1.00  0.00     0.352 A 
ATOM   1271  O2   DC A  52      91.950  97.092 202.968  1.00  0.00    -0.244 OA
ATOM   1272  N3   DC A  52      90.595  96.795 201.179  1.00  0.00    -0.177 NA
ATOM   1273  C4   DC A  52      89.761  95.992 200.516  1.00  0.00     0.128 A 
ATOM   1274  N4   DC A  52      89.224  96.448 199.385  1.00  0.00    -0.384 N 
ATOM   1275  H41  DC A  52      88.588  95.872 198.851  1.00  0.00     0.157 HD
ATOM   1276  H42  DC A  52      89.449  97.376 199.057  1.00  0.00     0.157 HD
ATOM   1277  C5   DC A  52      89.440  94.687 200.984  1.00  0.00     0.067 A 
ATOM   1278  C2'  DC A  52      90.858  95.183 205.321  1.00  0.00     0.199 C 
ATOM   1279  O2'  DC A  52      91.809  95.158 206.371  1.00  0.00    -0.388 OA
ATOM   1280 'HO2  DC A  52      91.803  94.274 206.743  1.00  0.00     0.210 HD
ATOM   1281  C3'  DC A  52      89.759  94.154 205.543  1.00  0.00     0.198 C 
ATOM   1282  O3'  DC A  52      89.280  94.138 206.886  1.00  0.00    -0.279 OA
ATOM   1283  P    DC A  53      87.884  94.855 207.246  1.00  0.00     0.408 P 
ATOM   1284  OP1  DC A  53      87.530  94.464 208.633  1.00  0.00    -0.624 OA
ATOM   1285  OP2  DC A  53      86.923  94.599 206.141  1.00  0.00    -0.624 OA
ATOM   1286  O5'  DC A  53      88.236  96.409 207.243  1.00  0.00    -0.287 OA
ATOM   1287  C5'  DC A  53      89.218  96.942 208.130  1.00  0.00     0.216 C 
ATOM   1288  C4'  DC A  53      89.566  98.358 207.734  1.00  0.00     0.180 C 
ATOM   1289  O4'  DC A  53      90.229  98.333 206.440  1.00  0.00    -0.353 OA
ATOM   1290  C1'  DC A  53      89.796  99.432 205.658  1.00  0.00     0.264 C 
ATOM   1291  N1   DC A  53      89.079  98.916 204.480  1.00  0.00    -0.278 N 
ATOM   1292  C6   DC A  53      88.586  97.641 204.459  1.00  0.00     0.102 A 
ATOM   1293  C2   DC A  53      88.912  99.753 203.376  1.00  0.00     0.352 A 
ATOM   1294  O2   DC A  53      89.362 100.907 203.421  1.00  0.00    -0.244 OA
ATOM   1295  N3   DC A  53      88.263  99.289 202.286  1.00  0.00    -0.177 NA
ATOM   1296  C4   DC A  53      87.792  98.042 202.272  1.00  0.00     0.128 A 
ATOM   1297  N4   DC A  53      87.163  97.628 201.172  1.00  0.00    -0.384 N 
ATOM   1298  H41  DC A  53      86.789  96.691 201.113  1.00  0.00     0.157 HD
ATOM   1299  H42  DC A  53      87.066  98.257 200.388  1.00  0.00     0.157 HD
ATOM   1300  C5   DC A  53      87.945  97.165 203.384  1.00  0.00     0.067 A 
ATOM   1301  C2'  DC A  53      88.934 100.319 206.556  1.00  0.00     0.199 C 
ATOM   1302  O2'  DC A  53      89.770 101.256 207.208  1.00  0.00    -0.388 OA
ATOM   1303 'HO2  DC A  53      89.596 101.178 208.147  1.00  0.00     0.210 HD
ATOM   1304  C3'  DC A  53      88.381  99.294 207.537  1.00  0.00     0.198 C 
ATOM   1305  O3'  DC A  53      87.965  99.886 208.765  1.00  0.00    -0.279 OA
ATOM   1306  P    DC A  54      86.456 100.423 208.923  1.00  0.00     0.408 P 
ATOM   1307  OP1  DC A  54      86.211 100.633 210.372  1.00  0.00    -0.624 OA
ATOM   1308  OP2  DC A  54      85.553  99.536 208.148  1.00  0.00    -0.624 OA
ATOM   1309  O5'  DC A  54      86.476 101.849 208.210  1.00  0.00    -0.287 OA
ATOM   1310  C5'  DC A  54      87.253 102.924 208.734  1.00  0.00     0.216 C 
ATOM   1311  C4'  DC A  54      87.019 104.180 207.925  1.00  0.00     0.180 C 
ATOM   1312  O4'  DC A  54      87.609 104.002 206.605  1.00  0.00    -0.353 OA
ATOM   1313  C1'  DC A  54      86.730 104.510 205.616  1.00  0.00     0.264 C 
ATOM   1314  N1   DC A  54      86.217 103.379 204.825  1.00  0.00    -0.278 N 
ATOM   1315  C6   DC A  54      86.224 102.110 205.333  1.00  0.00     0.102 A 
ATOM   1316  C2   DC A  54      85.724 103.621 203.541  1.00  0.00     0.352 A 
ATOM   1317  O2   DC A  54      85.719 104.781 203.107  1.00  0.00    -0.244 OA
ATOM   1318  N3   DC A  54      85.262 102.586 202.804  1.00  0.00    -0.177 NA
ATOM   1319  C4   DC A  54      85.281 101.350 203.306  1.00  0.00     0.128 A 
ATOM   1320  N4   DC A  54      84.821 100.361 202.541  1.00  0.00    -0.384 N 
ATOM   1321  H41  DC A  54      84.817  99.411 202.881  1.00  0.00     0.157 HD
ATOM   1322  H42  DC A  54      84.478 100.567 201.613  1.00  0.00     0.157 HD
ATOM   1323  C5   DC A  54      85.772 101.074 204.614  1.00  0.00     0.067 A 
ATOM   1324  C2'  DC A  54      85.644 105.298 206.346  1.00  0.00     0.199 C 
ATOM   1325  O2'  DC A  54      86.106 106.618 206.558  1.00  0.00    -0.388 OA
ATOM   1326 'HO2  DC A  54      85.973 106.813 207.486  1.00  0.00     0.210 HD
ATOM   1327  C3'  DC A  54      85.560 104.525 207.655  1.00  0.00     0.198 C 
ATOM   1328  O3'  DC A  54      84.998 105.299 208.710  1.00  0.00    -0.279 OA
ATOM   1329  P    DC A  55      83.407 105.287 208.950  1.00  0.00     0.408 P 
ATOM   1330  OP1  DC A  55      83.138 106.066 210.184  1.00  0.00    -0.624 OA
ATOM   1331  OP2  DC A  55      82.924 103.886 208.845  1.00  0.00    -0.624 OA
ATOM   1332  O5'  DC A  55      82.824 106.102 207.709  1.00  0.00    -0.287 OA
ATOM   1333  C5'  DC A  55      83.152 107.477 207.515  1.00  0.00     0.216 C 
ATOM   1334  C4'  DC A  55      82.553 107.977 206.220  1.00  0.00     0.180 C 
ATOM   1335  O4'  DC A  55      83.195 107.296 205.108  1.00  0.00    -0.353 OA
ATOM   1336  C1'  DC A  55      82.237 107.016 204.101  1.00  0.00     0.264 C 
ATOM   1337  N1   DC A  55      82.141 105.554 203.947  1.00  0.00    -0.278 N 
ATOM   1338  C6   DC A  55      82.462 104.717 204.980  1.00  0.00     0.102 A 
ATOM   1339  C2   DC A  55      81.719 105.031 202.723  1.00  0.00     0.352 A 
ATOM   1340  O2   DC A  55      81.425 105.810 201.804  1.00  0.00    -0.244 OA
ATOM   1341  N3   DC A  55      81.639 103.692 202.567  1.00  0.00    -0.177 NA
ATOM   1342  C4   DC A  55      81.963 102.884 203.578  1.00  0.00     0.128 A 
ATOM   1343  N4   DC A  55      81.876 101.570 203.374  1.00  0.00    -0.384 N 
ATOM   1344  H41  DC A  55      82.110 100.921 204.110  1.00  0.00     0.157 HD
ATOM   1345  H42  DC A  55      81.572 101.226 202.473  1.00  0.00     0.157 HD
ATOM   1346  C5   DC A  55      82.392 103.387 204.839  1.00  0.00     0.067 A 
ATOM   1347  C2'  DC A  55      80.925 107.679 204.517  1.00  0.00     0.199 C 
ATOM   1348  O2'  DC A  55      80.896 108.994 203.991  1.00  0.00    -0.388 OA
ATOM   1349 'HO2  DC A  55      81.026 109.592 204.728  1.00  0.00     0.210 HD
ATOM   1350  C3'  DC A  55      81.068 107.697 206.034  1.00  0.00     0.198 C 
ATOM   1351  O3'  DC A  55      80.265 108.704 206.644  1.00  0.00    -0.279 OA
ATOM   1352  P    DC A  56      78.757 108.363 207.089  1.00  0.00     0.408 P 
ATOM   1353  OP1  DC A  56      78.228 109.544 207.815  1.00  0.00    -0.624 OA
ATOM   1354  OP2  DC A  56      78.747 107.032 207.747  1.00  0.00    -0.624 OA
ATOM   1355  O5'  DC A  56      77.966 108.235 205.710  1.00  0.00    -0.287 OA
ATOM   1356  C5'  DC A  56      77.879 109.338 204.807  1.00  0.00     0.216 C 
ATOM   1357  C4'  DC A  56      77.011 108.975 203.625  1.00  0.00     0.180 C 
ATOM   1358  O4'  DC A  56      77.779 108.134 202.725  1.00  0.00    -0.353 OA
ATOM   1359  C1'  DC A  56      76.950 107.115 202.196  1.00  0.00     0.264 C 
ATOM   1360  N1   DC A  56      77.476 105.814 202.638  1.00  0.00    -0.278 N 
ATOM   1361  C6   DC A  56      78.063 105.674 203.865  1.00  0.00     0.102 A 
ATOM   1362  C2   DC A  56      77.364 104.717 201.781  1.00  0.00     0.352 A 
ATOM   1363  O2   DC A  56      76.829 104.870 200.673  1.00  0.00    -0.244 OA
ATOM   1364  N3   DC A  56      77.841 103.518 202.178  1.00  0.00    -0.177 NA
ATOM   1365  C4   DC A  56      78.413 103.390 203.375  1.00  0.00     0.128 A 
ATOM   1366  N4   DC A  56      78.868 102.187 203.722  1.00  0.00    -0.384 N 
ATOM   1367  H41  DC A  56      79.308 102.044 204.618  1.00  0.00     0.157 HD
ATOM   1368  H42  DC A  56      78.769 101.415 203.075  1.00  0.00     0.157 HD
ATOM   1369  C5   DC A  56      78.542 104.491 204.270  1.00  0.00     0.067 A 
ATOM   1370  C2'  DC A  56      75.521 107.390 202.662  1.00  0.00     0.198 C 
ATOM   1371  O2'  DC A  56      74.876 108.202 201.696  1.00  0.00    -0.388 OA
ATOM   1372 'HO2  DC A  56      74.311 108.811 202.174  1.00  0.00     0.210 HD
ATOM   1373  C3'  DC A  56      75.768 108.160 203.955  1.00  0.00     0.182 C 
ATOM   1374  O3'  DC A  56      74.657 108.986 204.319  1.00  0.00    -0.390 OA
ATOM   1375 'HO3  DC A  56      74.946 109.549 205.041  1.00  0.00     0.210 HD
ENDROOT
TORSDOF 434
ENDMDL
MODEL 3
REMARK VINA RESULT:     -21.5      8.962     39.956
REMARK  0 active torsions:
REMARK  status: ('A' for Active; 'I' for Inactive)
REMARK       I    between atoms: O5'_2  and  C5'_3 
REMARK       I    between atoms: C5'_3  and  C4'_4 
REMARK       I    between atoms: C1'_6  and  N9_7 
REMARK       I    between atoms: C2_10  and  N2_11 
REMARK       I    between atoms: C2'_21  and  O2'_22 
REMARK       I    between atoms: C3'_24  and  O3'_25 
REMARK       I    between atoms: O3'_25  and  P_26 
REMARK       I    between atoms: P_26  and  O5'_29 
REMARK       I    between atoms: O5'_29  and  C5'_30 
REMARK       I    between atoms: C5'_30  and  C4'_31 
REMARK       I    between atoms: C1'_33  and  N9_34 
REMARK       I    between atoms: C2_37  and  N2_38 
REMARK       I    between atoms: C2'_48  and  O2'_49 
REMARK       I    between atoms: C3'_51  and  O3'_52 
REMARK       I    between atoms: O3'_52  and  P_53 
REMARK       I    between atoms: P_53  and  O5'_56 
REMARK       I    between atoms: O5'_56  and  C5'_57 
REMARK       I    between atoms: C5'_57  and  C4'_58 
REMARK       I    between atoms: C1'_60  and  N9_61 
REMARK       I    between atoms: C2_64  and  N2_65 
REMARK       I    between atoms: C2'_75  and  O2'_76 
REMARK       I    between atoms: C3'_78  and  O3'_79 
REMARK       I    between atoms: O3'_79  and  P_80 
REMARK       I    between atoms: P_80  and  O5'_83 
REMARK       I    between atoms: O5'_83  and  C5'_84 
REMARK       I    between atoms: C5'_84  and  C4'_85 
REMARK       I    between atoms: C1'_87  and  N9_88 
REMARK       I    between atoms: C2_91  and  N2_92 
REMARK       I    between atoms: C2'_102  and  O2'_103 
REMARK       I    between atoms: C3'_105  and  O3'_106 
REMARK       I    between atoms: O3'_106  and  P_107 
REMARK       I    between atoms: P_107  and  O5'_110 
REMARK       I    between atoms: O5'_110  and  C5'_111 
REMARK       I    between atoms: C5'_111  and  C4'_112 
REMARK       I    between atoms: C1'_114  and  N9_115 
REMARK       I    between atoms: C2_118  and  N2_119 
REMARK       I    between atoms: C2'_129  and  O2'_130 
REMARK       I    between atoms: C3'_132  and  O3'_133 
REMARK       I    between atoms: O3'_133  and  P_134 
REMARK       I    between atoms: P_134  and  O5'_137 
REMARK       I    between atoms: O5'_137  and  C5'_138 
REMARK       I    between atoms: C5'_138  and  C4'_139 
REMARK       I    between atoms: C1'_141  and  N9_142 
REMARK       I    between atoms: C6_147  and  N6_148 
REMARK       I    between atoms: C2'_154  and  O2'_155 
REMARK       I    between atoms: C3'_157  and  O3'_158 
REMARK       I    between atoms: O3'_158  and  P_159 
REMARK       I    between atoms: P_159  and  O5'_162 
REMARK       I    between atoms: O5'_162  and  C5'_163 
REMARK       I    between atoms: C5'_163  and  C4'_164 
REMARK       I    between atoms: C1'_166  and  N9_167 
REMARK       I    between atoms: C2_170  and  N2_171 
REMARK       I    between atoms: C2'_181  and  O2'_182 
REMARK       I    between atoms: C3'_184  and  O3'_185 
REMARK       I    between atoms: O3'_185  and  P_186 
REMARK       I    between atoms: P_186  and  O5'_189 
REMARK       I    between atoms: O5'_189  and  C5'_190 
REMARK       I    between atoms: C5'_190  and  C4'_191 
REMARK       I    between atoms: C1'_193  and  N1_194 
REMARK       I    between atoms: C2'_203  and  O2'_204 
REMARK       I    between atoms: C3'_206  and  O3'_207 
REMARK       I    between atoms: O3'_207  and  P_208 
REMARK       I    between atoms: P_208  and  O5'_211 
REMARK       I    between atoms: O5'_211  and  C5'_212 
REMARK       I    between atoms: C5'_212  and  C4'_213 
REMARK       I    between atoms: C1'_215  and  N9_216 
REMARK       I    between atoms: C2_219  and  N2_220 
REMARK       I    between atoms: C2'_230  and  O2'_231 
REMARK       I    between atoms: C3'_233  and  O3'_234 
REMARK       I    between atoms: O3'_234  and  P_235 
REMARK       I    between atoms: P_235  and  O5'_238 
REMARK       I    between atoms: O5'_238  and  C5'_239 
REMARK       I    between atoms: C5'_239  and  C4'_240 
REMARK       I    between atoms: C1'_242  and  N9_243 
REMARK       I    between atoms: C2_246  and  N2_247 
REMARK       I    between atoms: C2'_257  and  O2'_258 
REMARK       I    between atoms: C3'_260  and  O3'_261 
REMARK       I    between atoms: O3'_261  and  P_262 
REMARK       I    between atoms: P_262  and  O5'_265 
REMARK       I    between atoms: O5'_265  and  C5'_266 
REMARK       I    between atoms: C5'_266  and  C4'_267 
REMARK       I    between atoms: C1'_269  and  N1_270 
REMARK       I    between atoms: C2'_279  and  O2'_280 
REMARK       I    between atoms: C3'_282  and  O3'_283 
REMARK       I    between atoms: O3'_283  and  P_284 
REMARK       I    between atoms: P_284  and  O5'_287 
REMARK       I    between atoms: O5'_287  and  C5'_288 
REMARK       I    between atoms: C5'_288  and  C4'_289 
REMARK       I    between atoms: C1'_291  and  N9_292 
REMARK       I    between atoms: C2_295  and  N2_296 
REMARK       I    between atoms: C2'_306  and  O2'_307 
REMARK       I    between atoms: C3'_309  and  O3'_310 
REMARK       I    between atoms: O3'_310  and  P_311 
REMARK       I    between atoms: P_311  and  O5'_314 
REMARK       I    between atoms: O5'_314  and  C5'_315 
REMARK       I    between atoms: C5'_315  and  C4'_316 
REMARK       I    between atoms: C1'_318  and  N9_319 
REMARK       I    between atoms: C2_322  and  N2_323 
REMARK       I    between atoms: C2'_333  and  O2'_334 
REMARK       I    between atoms: C3'_336  and  O3'_337 
REMARK       I    between atoms: O3'_337  and  P_338 
REMARK       I    between atoms: P_338  and  O5'_341 
REMARK       I    between atoms: O5'_341  and  C5'_342 
REMARK       I    between atoms: C5'_342  and  C4'_343 
REMARK       I    between atoms: C1'_345  and  N9_346 
REMARK       I    between atoms: C6_351  and  N6_352 
REMARK       I    between atoms: C2'_358  and  O2'_359 
REMARK       I    between atoms: C3'_361  and  O3'_362 
REMARK       I    between atoms: O3'_362  and  P_363 
REMARK       I    between atoms: P_363  and  O5'_366 
REMARK       I    between atoms: O5'_366  and  C5'_367 
REMARK       I    between atoms: C5'_367  and  C4'_368 
REMARK       I    between atoms: C1'_370  and  N9_371 
REMARK       I    between atoms: C6_376  and  N6_377 
REMARK       I    between atoms: C2'_383  and  O2'_384 
REMARK       I    between atoms: C3'_386  and  O3'_387 
REMARK       I    between atoms: O3'_387  and  P_388 
REMARK       I    between atoms: P_388  and  O5'_391 
REMARK       I    between atoms: O5'_391  and  C5'_392 
REMARK       I    between atoms: C5'_392  and  C4'_393 
REMARK       I    between atoms: C1'_395  and  N1_396 
REMARK       I    between atoms: C2'_405  and  O2'_406 
REMARK       I    between atoms: C3'_408  and  O3'_409 
REMARK       I    between atoms: O3'_409  and  P_410 
REMARK       I    between atoms: P_410  and  O5'_413 
REMARK       I    between atoms: O5'_413  and  C5'_414 
REMARK       I    between atoms: C5'_414  and  C4'_415 
REMARK       I    between atoms: C1'_417  and  N9_418 
REMARK       I    between atoms: C2_421  and  N2_422 
REMARK       I    between atoms: C2'_432  and  O2'_433 
REMARK       I    between atoms: C3'_435  and  O3'_436 
REMARK       I    between atoms: O3'_436  and  P_437 
REMARK       I    between atoms: P_437  and  O5'_440 
REMARK       I    between atoms: O5'_440  and  C5'_441 
REMARK       I    between atoms: C5'_441  and  C4'_442 
REMARK       I    between atoms: C1'_444  and  N9_445 
REMARK       I    between atoms: C2_448  and  N2_449 
REMARK       I    between atoms: C2'_459  and  O2'_460 
REMARK       I    between atoms: C3'_462  and  O3'_463 
REMARK       I    between atoms: O3'_463  and  P_464 
REMARK       I    between atoms: P_464  and  O5'_467 
REMARK       I    between atoms: O5'_467  and  C5'_468 
REMARK       I    between atoms: C5'_468  and  C4'_469 
REMARK       I    between atoms: C1'_471  and  N1_472 
REMARK       I    between atoms: C2'_481  and  O2'_482 
REMARK       I    between atoms: C3'_484  and  O3'_485 
REMARK       I    between atoms: O3'_485  and  P_486 
REMARK       I    between atoms: P_486  and  O5'_489 
REMARK       I    between atoms: O5'_489  and  C5'_490 
REMARK       I    between atoms: C5'_490  and  C4'_491 
REMARK       I    between atoms: C1'_493  and  N9_494 
REMARK       I    between atoms: C6_499  and  N6_500 
REMARK       I    between atoms: C2'_506  and  O2'_507 
REMARK       I    between atoms: C3'_509  and  O3'_510 
REMARK       I    between atoms: O3'_510  and  P_511 
REMARK       I    between atoms: P_511  and  O5'_514 
REMARK       I    between atoms: O5'_514  and  C5'_515 
REMARK       I    between atoms: C5'_515  and  C4'_516 
REMARK       I    between atoms: C1'_518  and  N9_519 
REMARK       I    between atoms: C2_522  and  N2_523 
REMARK       I    between atoms: C2'_533  and  O2'_534 
REMARK       I    between atoms: C3'_536  and  O3'_537 
REMARK       I    between atoms: O3'_537  and  P_538 
REMARK       I    between atoms: P_538  and  O5'_541 
REMARK       I    between atoms: O5'_541  and  C5'_542 
REMARK       I    between atoms: C5'_542  and  C4'_543 
REMARK       I    between atoms: C1'_545  and  N9_546 
REMARK       I    between atoms: C6_551  and  N6_552 
REMARK       I    between atoms: C2'_558  and  O2'_559 
REMARK       I    between atoms: C3'_561  and  O3'_562 
REMARK       I    between atoms: O3'_562  and  P_563 
REMARK       I    between atoms: P_563  and  O5'_566 
REMARK       I    between atoms: O5'_566  and  C5'_567 
REMARK       I    between atoms: C5'_567  and  C4'_568 
REMARK       I    between atoms: C1'_570  and  N1_571 
REMARK       I    between atoms: C4_576  and  N4_577 
REMARK       I    between atoms: C2'_581  and  O2'_582 
REMARK       I    between atoms: C3'_584  and  O3'_585 
REMARK       I    between atoms: O3'_585  and  P_586 
REMARK       I    between atoms: P_586  and  O5'_589 
REMARK       I    between atoms: O5'_589  and  C5'_590 
REMARK       I    between atoms: C5'_590  and  C4'_591 
REMARK       I    between atoms: C1'_593  and  N9_594 
REMARK       I    between atoms: C6_599  and  N6_600 
REMARK       I    between atoms: C2'_606  and  O2'_607 
REMARK       I    between atoms: C3'_609  and  O3'_610 
REMARK       I    between atoms: O3'_610  and  P_611 
REMARK       I    between atoms: P_611  and  O5'_614 
REMARK       I    between atoms: O5'_614  and  C5'_615 
REMARK       I    between atoms: C5'_615  and  C4'_616 
REMARK       I    between atoms: C1'_618  and  N1_619 
REMARK       I    between atoms: C4_624  and  N4_625 
REMARK       I    between atoms: C2'_629  and  O2'_630 
REMARK       I    between atoms: C3'_632  and  O3'_633 
REMARK       I    between atoms: O3'_633  and  P_634 
REMARK       I    between atoms: P_634  and  O5'_637 
REMARK       I    between atoms: O5'_637  and  C5'_638 
REMARK       I    between atoms: C5'_638  and  C4'_639 
REMARK       I    between atoms: C1'_641  and  N9_642 
REMARK       I    between atoms: C2_645  and  N2_646 
REMARK       I    between atoms: C2'_656  and  O2'_657 
REMARK       I    between atoms: C3'_659  and  O3'_660 
REMARK       I    between atoms: O3'_660  and  P_661 
REMARK       I    between atoms: P_661  and  O5'_664 
REMARK       I    between atoms: O5'_664  and  C5'_665 
REMARK       I    between atoms: C5'_665  and  C4'_666 
REMARK       I    between atoms: C1'_668  and  N1_669 
REMARK       I    between atoms: C4_674  and  N4_675 
REMARK       I    between atoms: C2'_679  and  O2'_680 
REMARK       I    between atoms: C3'_682  and  O3'_683 
REMARK       I    between atoms: O3'_683  and  P_684 
REMARK       I    between atoms: P_684  and  O5'_687 
REMARK       I    between atoms: O5'_687  and  C5'_688 
REMARK       I    between atoms: C5'_688  and  C4'_689 
REMARK       I    between atoms: C1'_691  and  N1_692 
REMARK       I    between atoms: C4_697  and  N4_698 
REMARK       I    between atoms: C2'_702  and  O2'_703 
REMARK       I    between atoms: C3'_705  and  O3'_706 
REMARK       I    between atoms: O3'_706  and  P_707 
REMARK       I    between atoms: P_707  and  O5'_710 
REMARK       I    between atoms: O5'_710  and  C5'_711 
REMARK       I    between atoms: C5'_711  and  C4'_712 
REMARK       I    between atoms: C1'_714  and  N9_715 
REMARK       I    between atoms: C2_718  and  N2_719 
REMARK       I    between atoms: C2'_729  and  O2'_730 
REMARK       I    between atoms: C3'_732  and  O3'_733 
REMARK       I    between atoms: O3'_733  and  P_734 
REMARK       I    between atoms: P_734  and  O5'_737 
REMARK       I    between atoms: O5'_737  and  C5'_738 
REMARK       I    between atoms: C5'_738  and  C4'_739 
REMARK       I    between atoms: C1'_741  and  N9_742 
REMARK       I    between atoms: C2_745  and  N2_746 
REMARK       I    between atoms: C2'_756  and  O2'_757 
REMARK       I    between atoms: C3'_759  and  O3'_760 
REMARK       I    between atoms: O3'_760  and  P_761 
REMARK       I    between atoms: P_761  and  O5'_764 
REMARK       I    between atoms: O5'_764  and  C5'_765 
REMARK       I    between atoms: C5'_765  and  C4'_766 
REMARK       I    between atoms: C1'_768  and  N9_769 
REMARK       I    between atoms: C6_774  and  N6_775 
REMARK       I    between atoms: C2'_781  and  O2'_782 
REMARK       I    between atoms: C3'_784  and  O3'_785 
REMARK       I    between atoms: O3'_785  and  P_786 
REMARK       I    between atoms: P_786  and  O5'_789 
REMARK       I    between atoms: O5'_789  and  C5'_790 
REMARK       I    between atoms: C5'_790  and  C4'_791 
REMARK       I    between atoms: C1'_793  and  N1_794 
REMARK       I    between atoms: C2'_803  and  O2'_804 
REMARK       I    between atoms: C3'_806  and  O3'_807 
REMARK       I    between atoms: O3'_807  and  P_808 
REMARK       I    between atoms: P_808  and  O5'_811 
REMARK       I    between atoms: O5'_811  and  C5'_812 
REMARK       I    between atoms: C5'_812  and  C4'_813 
REMARK       I    between atoms: C1'_815  and  N1_816 
REMARK       I    between atoms: C2'_825  and  O2'_826 
REMARK       I    between atoms: C3'_828  and  O3'_829 
REMARK       I    between atoms: O3'_829  and  P_830 
REMARK       I    between atoms: P_830  and  O5'_833 
REMARK       I    between atoms: O5'_833  and  C5'_834 
REMARK       I    between atoms: C5'_834  and  C4'_835 
REMARK       I    between atoms: C1'_837  and  N1_838 
REMARK       I    between atoms: C2'_847  and  O2'_848 
REMARK       I    between atoms: C3'_850  and  O3'_851 
REMARK       I    between atoms: O3'_851  and  P_852 
REMARK       I    between atoms: P_852  and  O5'_855 
REMARK       I    between atoms: O5'_855  and  C5'_856 
REMARK       I    between atoms: C5'_856  and  C4'_857 
REMARK       I    between atoms: C1'_859  and  N9_860 
REMARK       I    between atoms: C6_865  and  N6_866 
REMARK       I    between atoms: C2'_872  and  O2'_873 
REMARK       I    between atoms: C3'_875  and  O3'_876 
REMARK       I    between atoms: O3'_876  and  P_877 
REMARK       I    between atoms: P_877  and  O5'_880 
REMARK       I    between atoms: O5'_880  and  C5'_881 
REMARK       I    between atoms: C5'_881  and  C4'_882 
REMARK       I    between atoms: C1'_884  and  N9_885 
REMARK       I    between atoms: C2_888  and  N2_889 
REMARK       I    between atoms: C2'_899  and  O2'_900 
REMARK       I    between atoms: C3'_902  and  O3'_903 
REMARK       I    between atoms: O3'_903  and  P_904 
REMARK       I    between atoms: P_904  and  O5'_907 
REMARK       I    between atoms: O5'_907  and  C5'_908 
REMARK       I    between atoms: C5'_908  and  C4'_909 
REMARK       I    between atoms: C1'_911  and  N9_912 
REMARK       I    between atoms: C2_915  and  N2_916 
REMARK       I    between atoms: C2'_926  and  O2'_927 
REMARK       I    between atoms: C3'_929  and  O3'_930 
REMARK       I    between atoms: O3'_930  and  P_931 
REMARK       I    between atoms: P_931  and  O5'_934 
REMARK       I    between atoms: O5'_934  and  C5'_935 
REMARK       I    between atoms: C5'_935  and  C4'_936 
REMARK       I    between atoms: C1'_938  and  N1_939 
REMARK       I    between atoms: C2'_948  and  O2'_949 
REMARK       I    between atoms: C3'_951  and  O3'_952 
REMARK       I    between atoms: O3'_952  and  P_953 
REMARK       I    between atoms: P_953  and  O5'_956 
REMARK       I    between atoms: O5'_956  and  C5'_957 
REMARK       I    between atoms: C5'_957  and  C4'_958 
REMARK       I    between atoms: C1'_960  and  N1_961 
REMARK       I    between atoms: C2'_970  and  O2'_971 
REMARK       I    between atoms: C3'_973  and  O3'_974 
REMARK       I    between atoms: O3'_974  and  P_975 
REMARK       I    between atoms: P_975  and  O5'_978 
REMARK       I    between atoms: O5'_978  and  C5'_979 
REMARK       I    between atoms: C5'_979  and  C4'_980 
REMARK       I    between atoms: C1'_982  and  N9_983 
REMARK       I    between atoms: C2_986  and  N2_987 
REMARK       I    between atoms: C2'_997  and  O2'_998 
REMARK       I    between atoms: C3'_1000  and  O3'_1001 
REMARK       I    between atoms: O3'_1001  and  P_1002 
REMARK       I    between atoms: P_1002  and  O5'_1005 
REMARK       I    between atoms: O5'_1005  and  C5'_1006 
REMARK       I    between atoms: C5'_1006  and  C4'_1007 
REMARK       I    between atoms: C1'_1009  and  N1_1010 
REMARK       I    between atoms: C4_1015  and  N4_1016 
REMARK       I    between atoms: C2'_1020  and  O2'_1021 
REMARK       I    between atoms: C3'_1023  and  O3'_1024 
REMARK       I    between atoms: O3'_1024  and  P_1025 
REMARK       I    between atoms: P_1025  and  O5'_1028 
REMARK       I    between atoms: O5'_1028  and  C5'_1029 
REMARK       I    between atoms: C5'_1029  and  C4'_1030 
REMARK       I    between atoms: C1'_1032  and  N1_1033 
REMARK       I    between atoms: C4_1038  and  N4_1039 
REMARK       I    between atoms: C2'_1043  and  O2'_1044 
REMARK       I    between atoms: C3'_1046  and  O3'_1047 
REMARK       I    between atoms: O3'_1047  and  P_1048 
REMARK       I    between atoms: P_1048  and  O5'_1051 
REMARK       I    between atoms: O5'_1051  and  C5'_1052 
REMARK       I    between atoms: C5'_1052  and  C4'_1053 
REMARK       I    between atoms: C1'_1055  and  N9_1056 
REMARK       I    between atoms: C2_1059  and  N2_1060 
REMARK       I    between atoms: C2'_1070  and  O2'_1071 
REMARK       I    between atoms: C3'_1073  and  O3'_1074 
REMARK       I    between atoms: O3'_1074  and  P_1075 
REMARK       I    between atoms: P_1075  and  O5'_1078 
REMARK       I    between atoms: O5'_1078  and  C5'_1079 
REMARK       I    between atoms: C5'_1079  and  C4'_1080 
REMARK       I    between atoms: C1'_1082  and  N9_1083 
REMARK       I    between atoms: C6_1088  and  N6_1089 
REMARK       I    between atoms: C2'_1095  and  O2'_1096 
REMARK       I    between atoms: C3'_1098  and  O3'_1099 
REMARK       I    between atoms: O3'_1099  and  P_1100 
REMARK       I    between atoms: P_1100  and  O5'_1103 
REMARK       I    between atoms: O5'_1103  and  C5'_1104 
REMARK       I    between atoms: C5'_1104  and  C4'_1105 
REMARK       I    between atoms: C1'_1107  and  N9_1108 
REMARK       I    between atoms: C6_1113  and  N6_1114 
REMARK       I    between atoms: C2'_1120  and  O2'_1121 
REMARK       I    between atoms: C3'_1123  and  O3'_1124 
REMARK       I    between atoms: O3'_1124  and  P_1125 
REMARK       I    between atoms: P_1125  and  O5'_1128 
REMARK       I    between atoms: O5'_1128  and  C5'_1129 
REMARK       I    between atoms: C5'_1129  and  C4'_1130 
REMARK       I    between atoms: C1'_1132  and  N1_1133 
REMARK       I    between atoms: C4_1138  and  N4_1139 
REMARK       I    between atoms: C2'_1143  and  O2'_1144 
REMARK       I    between atoms: C3'_1146  and  O3'_1147 
REMARK       I    between atoms: O3'_1147  and  P_1148 
REMARK       I    between atoms: P_1148  and  O5'_1151 
REMARK       I    between atoms: O5'_1151  and  C5'_1152 
REMARK       I    between atoms: C5'_1152  and  C4'_1153 
REMARK       I    between atoms: C1'_1155  and  N1_1156 
REMARK       I    between atoms: C4_1161  and  N4_1162 
REMARK       I    between atoms: C2'_1166  and  O2'_1167 
REMARK       I    between atoms: C3'_1169  and  O3'_1170 
REMARK       I    between atoms: O3'_1170  and  P_1171 
REMARK       I    between atoms: P_1171  and  O5'_1174 
REMARK       I    between atoms: O5'_1174  and  C5'_1175 
REMARK       I    between atoms: C5'_1175  and  C4'_1176 
REMARK       I    between atoms: C1'_1178  and  N1_1179 
REMARK       I    between atoms: C2'_1188  and  O2'_1189 
REMARK       I    between atoms: C3'_1191  and  O3'_1192 
REMARK       I    between atoms: O3'_1192  and  P_1193 
REMARK       I    between atoms: P_1193  and  O5'_1196 
REMARK       I    between atoms: O5'_1196  and  C5'_1197 
REMARK       I    between atoms: C5'_1197  and  C4'_1198 
REMARK       I    between atoms: C1'_1200  and  N1_1201 
REMARK       I    between atoms: C4_1206  and  N4_1207 
REMARK       I    between atoms: C2'_1211  and  O2'_1212 
REMARK       I    between atoms: C3'_1214  and  O3'_1215 
REMARK       I    between atoms: O3'_1215  and  P_1216 
REMARK       I    between atoms: P_1216  and  O5'_1219 
REMARK       I    between atoms: O5'_1219  and  C5'_1220 
REMARK       I    between atoms: C5'_1220  and  C4'_1221 
REMARK       I    between atoms: C1'_1223  and  N1_1224 
REMARK       I    between atoms: C2'_1233  and  O2'_1234 
REMARK       I    between atoms: C3'_1236  and  O3'_1237 
REMARK       I    between atoms: O3'_1237  and  P_1238 
REMARK       I    between atoms: P_1238  and  O5'_1241 
REMARK       I    between atoms: O5'_1241  and  C5'_1242 
REMARK       I    between atoms: C5'_1242  and  C4'_1243 
REMARK       I    between atoms: C1'_1245  and  N1_1246 
REMARK       I    between atoms: C2'_1255  and  O2'_1256 
REMARK       I    between atoms: C3'_1258  and  O3'_1259 
REMARK       I    between atoms: O3'_1259  and  P_1260 
REMARK       I    between atoms: P_1260  and  O5'_1263 
REMARK       I    between atoms: O5'_1263  and  C5'_1264 
REMARK       I    between atoms: C5'_1264  and  C4'_1265 
REMARK       I    between atoms: C1'_1267  and  N1_1268 
REMARK       I    between atoms: C4_1273  and  N4_1274 
REMARK       I    between atoms: C2'_1278  and  O2'_1279 
REMARK       I    between atoms: C3'_1281  and  O3'_1282 
REMARK       I    between atoms: O3'_1282  and  P_1283 
REMARK       I    between atoms: P_1283  and  O5'_1286 
REMARK       I    between atoms: O5'_1286  and  C5'_1287 
REMARK       I    between atoms: C5'_1287  and  C4'_1288 
REMARK       I    between atoms: C1'_1290  and  N1_1291 
REMARK       I    between atoms: C4_1296  and  N4_1297 
REMARK       I    between atoms: C2'_1301  and  O2'_1302 
REMARK       I    between atoms: C3'_1304  and  O3'_1305 
REMARK       I    between atoms: O3'_1305  and  P_1306 
REMARK       I    between atoms: P_1306  and  O5'_1309 
REMARK       I    between atoms: O5'_1309  and  C5'_1310 
REMARK       I    between atoms: C5'_1310  and  C4'_1311 
REMARK       I    between atoms: C1'_1313  and  N1_1314 
REMARK       I    between atoms: C4_1319  and  N4_1320 
REMARK       I    between atoms: C2'_1324  and  O2'_1325 
REMARK       I    between atoms: C3'_1327  and  O3'_1328 
REMARK       I    between atoms: O3'_1328  and  P_1329 
REMARK       I    between atoms: P_1329  and  O5'_1332 
REMARK       I    between atoms: O5'_1332  and  C5'_1333 
REMARK       I    between atoms: C5'_1333  and  C4'_1334 
REMARK       I    between atoms: C1'_1336  and  N1_1337 
REMARK       I    between atoms: C4_1342  and  N4_1343 
REMARK       I    between atoms: C2'_1347  and  O2'_1348 
REMARK       I    between atoms: C3'_1350  and  O3'_1351 
REMARK       I    between atoms: O3'_1351  and  P_1352 
REMARK       I    between atoms: P_1352  and  O5'_1355 
REMARK       I    between atoms: O5'_1355  and  C5'_1356 
REMARK       I    between atoms: C5'_1356  and  C4'_1357 
REMARK       I    between atoms: C1'_1359  and  N1_1360 
REMARK       I    between atoms: C4_1365  and  N4_1366 
REMARK       I    between atoms: C2'_1370  and  O2'_1371 
REMARK       I    between atoms: C3'_1373  and  O3'_1374 
ROOT
ATOM      1 'HO5  DG A   1      77.402  94.041 200.341  1.00  0.00     0.209 HD
ATOM      2  O5'  DG A   1      77.463  93.082 200.340  1.00  0.00    -0.398 OA
ATOM      3  C5'  DG A   1      76.442  92.592 199.466  1.00  0.00     0.198 C 
ATOM      4  C4'  DG A   1      75.631  93.729 198.888  1.00  0.00     0.180 C 
ATOM      5  O4'  DG A   1      74.824  94.314 199.948  1.00  0.00    -0.353 OA
ATOM      6  C1'  DG A   1      74.862  95.726 199.855  1.00  0.00     0.262 C 
ATOM      7  N9   DG A   1      75.594  96.242 201.008  1.00  0.00    -0.293 N 
ATOM      8  C4   DG A   1      75.651  97.550 201.421  1.00  0.00     0.187 A 
ATOM      9  N3   DG A   1      75.036  98.597 200.832  1.00  0.00    -0.044 NA
ATOM     10  C2   DG A   1      75.278  99.731 201.463  1.00  0.00     0.703 A 
ATOM     11  N2   DG A   1      74.744 100.869 201.012  1.00  0.00    -0.233 N 
ATOM     12  H21  DG A   1      74.160 100.850 200.190  1.00  0.00     0.174 HD
ATOM     13  H22  DG A   1      74.928 101.739 201.492  1.00  0.00     0.174 HD
ATOM     14  N1   DG A   1      76.061  99.833 202.584  1.00  0.00    -0.153 N 
ATOM     15  H1   DG A   1      76.181 100.748 202.988  1.00  0.00     0.187 HD
ATOM     16  C6   DG A   1      76.705  98.772 203.209  1.00  0.00     0.292 A 
ATOM     17  O6   DG A   1      77.389  98.977 204.217  1.00  0.00    -0.265 OA
ATOM     18  C5   DG A   1      76.455  97.546 202.542  1.00  0.00     0.173 A 
ATOM     19  N7   DG A   1      76.894  96.259 202.828  1.00  0.00    -0.234 NA
ATOM     20  C8   DG A   1      76.359  95.523 201.893  1.00  0.00     0.214 A 
ATOM     21  C2'  DG A   1      75.504  96.073 198.513  1.00  0.00     0.199 C 
ATOM     22  O2'  DG A   1      74.495  96.093 197.521  1.00  0.00    -0.388 OA
ATOM     23 'HO2  DG A   1      74.859  96.554 196.765  1.00  0.00     0.210 HD
ATOM     24  C3'  DG A   1      76.444  94.888 198.325  1.00  0.00     0.198 C 
ATOM     25  O3'  DG A   1      76.785  94.670 196.960  1.00  0.00    -0.279 OA
ATOM     26  P    DG A   2      78.099  95.364 196.342  1.00  0.00     0.408 P 
ATOM     27  OP1  DG A   2      78.147  95.010 194.901  1.00  0.00    -0.624 OA
ATOM     28  OP2  DG A   2      79.254  95.040 197.217  1.00  0.00    -0.624 OA
ATOM     29  O5'  DG A   2      77.801  96.926 196.462  1.00  0.00    -0.287 OA
ATOM     30  C5'  DG A   2      76.944  97.583 195.529  1.00  0.00     0.216 C 
ATOM     31  C4'  DG A   2      76.735  99.025 195.935  1.00  0.00     0.180 C 
ATOM     32  O4'  DG A   2      76.390  99.084 197.342  1.00  0.00    -0.353 OA
ATOM     33  C1'  DG A   2      76.865 100.300 197.894  1.00  0.00     0.262 C 
ATOM     34  N9   DG A   2      77.674  99.987 199.068  1.00  0.00    -0.293 N 
ATOM     35  C4   DG A   2      78.125 100.879 200.011  1.00  0.00     0.187 A 
ATOM     36  N3   DG A   2      77.902 102.210 200.015  1.00  0.00    -0.044 NA
ATOM     37  C2   DG A   2      78.462 102.800 201.056  1.00  0.00     0.703 A 
ATOM     38  N2   DG A   2      78.339 104.121 201.215  1.00  0.00    -0.233 N 
ATOM     39  H21  DG A   2      77.818 104.656 200.536  1.00  0.00     0.174 HD
ATOM     40  H22  DG A   2      78.768 104.580 202.007  1.00  0.00     0.174 HD
ATOM     41  N1   DG A   2      79.182 102.141 202.017  1.00  0.00    -0.153 N 
ATOM     42  H1   DG A   2      79.567 102.689 202.770  1.00  0.00     0.187 HD
ATOM     43  C6   DG A   2      79.426 100.773 202.036  1.00  0.00     0.292 A 
ATOM     44  O6   DG A   2      80.090 100.279 202.954  1.00  0.00    -0.265 OA
ATOM     45  C5   DG A   2      78.831 100.122 200.922  1.00  0.00     0.173 A 
ATOM     46  N7   DG A   2      78.828  98.781 200.559  1.00  0.00    -0.234 NA
ATOM     47  C8   DG A   2      78.133  98.752 199.454  1.00  0.00     0.214 A 
ATOM     48  C2'  DG A   2      77.632 101.049 196.800  1.00  0.00     0.199 C 
ATOM     49  O2'  DG A   2      76.761 101.995 196.210  1.00  0.00    -0.388 OA
ATOM     50 'HO2  DG A   2      76.870 101.913 195.262  1.00  0.00     0.210 HD
ATOM     51  C3'  DG A   2      77.958  99.922 195.823  1.00  0.00     0.198 C 
ATOM     52  O3'  DG A   2      78.137 100.392 194.489  1.00  0.00    -0.279 OA
ATOM     53  P    DG A   3      79.615 100.729 193.951  1.00  0.00     0.408 P 
ATOM     54  OP1  DG A   3      79.487 101.085 192.514  1.00  0.00    -0.624 OA
ATOM     55  OP2  DG A   3      80.528  99.630 194.354  1.00  0.00    -0.624 OA
ATOM     56  O5'  DG A   3      80.029 102.045 194.749  1.00  0.00    -0.287 OA
ATOM     57  C5'  DG A   3      79.242 103.233 194.667  1.00  0.00     0.216 C 
ATOM     58  C4'  DG A   3      79.751 104.265 195.645  1.00  0.00     0.180 C 
ATOM     59  O4'  DG A   3      79.602 103.757 196.989  1.00  0.00    -0.353 OA
ATOM     60  C1'  DG A   3      80.572 104.355 197.824  1.00  0.00     0.262 C 
ATOM     61  N9   DG A   3      81.161 103.313 198.659  1.00  0.00    -0.293 N 
ATOM     62  C4   DG A   3      81.768 103.490 199.879  1.00  0.00     0.187 A 
ATOM     63  N3   DG A   3      81.928 104.666 200.522  1.00  0.00    -0.044 NA
ATOM     64  C2   DG A   3      82.547 104.514 201.678  1.00  0.00     0.703 A 
ATOM     65  N2   DG A   3      82.785 105.579 202.449  1.00  0.00    -0.233 N 
ATOM     66  H21  DG A   3      82.489 106.492 202.140  1.00  0.00     0.174 HD
ATOM     67  H22  DG A   3      83.265 105.470 203.332  1.00  0.00     0.174 HD
ATOM     68  N1   DG A   3      82.977 103.308 202.167  1.00  0.00    -0.153 N 
ATOM     69  H1   DG A   3      83.443 103.305 203.060  1.00  0.00     0.187 HD
ATOM     70  C6   DG A   3      82.824 102.085 201.525  1.00  0.00     0.292 A 
ATOM     71  O6   DG A   3      83.251 101.054 202.058  1.00  0.00    -0.265 OA
ATOM     72  C5   DG A   3      82.158 102.230 200.280  1.00  0.00     0.173 A 
ATOM     73  N7   DG A   3      81.806 101.279 199.331  1.00  0.00    -0.234 NA
ATOM     74  C8   DG A   3      81.220 101.967 198.390  1.00  0.00     0.214 A 
ATOM     75  C2'  DG A   3      81.589 105.088 196.943  1.00  0.00     0.199 C 
ATOM     76  O2'  DG A   3      81.360 106.480 197.062  1.00  0.00    -0.388 OA
ATOM     77 'HO2  DG A   3      82.108 106.915 196.650  1.00  0.00     0.210 HD
ATOM     78  C3'  DG A   3      81.234 104.591 195.539  1.00  0.00     0.198 C 
ATOM     79  O3'  DG A   3      81.463 105.580 194.538  1.00  0.00    -0.279 OA
ATOM     80  P    DG A   4      82.868 105.620 193.756  1.00  0.00     0.408 P 
ATOM     81  OP1  DG A   4      82.736 106.626 192.672  1.00  0.00    -0.624 OA
ATOM     82  OP2  DG A   4      83.265 104.229 193.419  1.00  0.00    -0.624 OA
ATOM     83  O5'  DG A   4      83.893 106.196 194.833  1.00  0.00    -0.287 OA
ATOM     84  C5'  DG A   4      84.809 105.338 195.511  1.00  0.00     0.216 C 
ATOM     85  C4'  DG A   4      85.419 106.059 196.689  1.00  0.00     0.180 C 
ATOM     86  O4'  DG A   4      84.770 105.597 197.904  1.00  0.00    -0.353 OA
ATOM     87  C1'  DG A   4      85.731 105.446 198.934  1.00  0.00     0.262 C 
ATOM     88  N9   DG A   4      85.797 104.034 199.298  1.00  0.00    -0.293 N 
ATOM     89  C4   DG A   4      86.340 103.511 200.446  1.00  0.00     0.187 A 
ATOM     90  N3   DG A   4      86.910 104.216 201.445  1.00  0.00    -0.044 NA
ATOM     91  C2   DG A   4      87.340 103.432 202.418  1.00  0.00     0.703 A 
ATOM     92  N2   DG A   4      87.929 103.968 203.490  1.00  0.00    -0.233 N 
ATOM     93  H21  DG A   4      88.040 104.970 203.546  1.00  0.00     0.174 HD
ATOM     94  H22  DG A   4      88.265 103.374 204.236  1.00  0.00     0.174 HD
ATOM     95  N1   DG A   4      87.223 102.067 202.412  1.00  0.00    -0.153 N 
ATOM     96  H1   DG A   4      87.587 101.564 203.206  1.00  0.00     0.187 HD
ATOM     97  C6   DG A   4      86.640 101.319 201.397  1.00  0.00     0.292 A 
ATOM     98  O6   DG A   4      86.585 100.087 201.495  1.00  0.00    -0.265 OA
ATOM     99  C5   DG A   4      86.172 102.146 200.344  1.00  0.00     0.173 A 
ATOM    100  N7   DG A   4      85.535 101.817 199.153  1.00  0.00    -0.234 NA
ATOM    101  C8   DG A   4      85.334 102.966 198.569  1.00  0.00     0.214 A 
ATOM    102  C2'  DG A   4      87.054 106.009 198.417  1.00  0.00     0.199 C 
ATOM    103  O2'  DG A   4      87.115 107.388 198.733  1.00  0.00    -0.388 OA
ATOM    104 'HO2  DG A   4      87.412 107.837 197.942  1.00  0.00     0.210 HD
ATOM    105  C3'  DG A   4      86.902 105.798 196.915  1.00  0.00     0.198 C 
ATOM    106  O3'  DG A   4      87.709 106.695 196.157  1.00  0.00    -0.279 OA
ATOM    107  P    DG A   5      89.203 106.270 195.741  1.00  0.00     0.408 P 
ATOM    108  OP1  DG A   5      89.796 107.410 194.997  1.00  0.00    -0.624 OA
ATOM    109  OP2  DG A   5      89.151 104.928 195.105  1.00  0.00    -0.624 OA
ATOM    110  O5'  DG A   5      89.968 106.137 197.133  1.00  0.00    -0.287 OA
ATOM    111  C5'  DG A   5      90.194 107.279 197.959  1.00  0.00     0.216 C 
ATOM    112  C4'  DG A   5      91.154 106.931 199.074  1.00  0.00     0.180 C 
ATOM    113  O4'  DG A   5      90.456 106.120 200.055  1.00  0.00    -0.353 OA
ATOM    114  C1'  DG A   5      91.325 105.123 200.561  1.00  0.00     0.262 C 
ATOM    115  N9   DG A   5      90.748 103.817 200.259  1.00  0.00    -0.293 N 
ATOM    116  C4   DG A   5      90.820 102.689 201.042  1.00  0.00     0.187 A 
ATOM    117  N3   DG A   5      91.439 102.591 202.239  1.00  0.00    -0.044 NA
ATOM    118  C2   DG A   5      91.337 101.377 202.749  1.00  0.00     0.703 A 
ATOM    119  N2   DG A   5      91.890 101.108 203.935  1.00  0.00    -0.233 N 
ATOM    120  H21  DG A   5      92.380 101.839 204.429  1.00  0.00     0.174 HD
ATOM    121  H22  DG A   5      91.826 100.182 204.335  1.00  0.00     0.174 HD
ATOM    122  N1   DG A   5      90.684 100.339 202.137  1.00  0.00    -0.153 N 
ATOM    123  H1   DG A   5      90.670  99.449 202.611  1.00  0.00     0.187 HD
ATOM    124  C6   DG A   5      90.039 100.416 200.908  1.00  0.00     0.292 A 
ATOM    125  O6   DG A   5      89.477  99.417 200.447  1.00  0.00    -0.265 OA
ATOM    126  C5   DG A   5      90.137 101.716 200.346  1.00  0.00     0.173 A 
ATOM    127  N7   DG A   5      89.643 102.219 199.149  1.00  0.00    -0.234 NA
ATOM    128  C8   DG A   5      90.030 103.465 199.143  1.00  0.00     0.214 A 
ATOM    129  C2'  DG A   5      92.706 105.340 199.940  1.00  0.00     0.199 C 
ATOM    130  O2'  DG A   5      93.476 106.143 200.816  1.00  0.00    -0.388 OA
ATOM    131 'HO2  DG A   5      94.388 105.868 200.715  1.00  0.00     0.210 HD
ATOM    132  C3'  DG A   5      92.355 106.093 198.659  1.00  0.00     0.198 C 
ATOM    133  O3'  DG A   5      93.421 106.918 198.201  1.00  0.00    -0.279 OA
ATOM    134  P    DA A   6      94.705 106.249 197.499  1.00  0.00     0.408 P 
ATOM    135  OP1  DA A   6      95.469 107.341 196.845  1.00  0.00    -0.624 OA
ATOM    136  OP2  DA A   6      94.252 105.086 196.694  1.00  0.00    -0.624 OA
ATOM    137  O5'  DA A   6      95.573 105.708 198.722  1.00  0.00    -0.287 OA
ATOM    138  C5'  DA A   6      96.634 104.776 198.514  1.00  0.00     0.216 C 
ATOM    139  C4'  DA A   6      96.829 103.927 199.748  1.00  0.00     0.180 C 
ATOM    140  O4'  DA A   6      95.532 103.603 200.315  1.00  0.00    -0.353 OA
ATOM    141  C1'  DA A   6      95.544 102.279 200.818  1.00  0.00     0.262 C 
ATOM    142  N9   DA A   6      94.524 101.509 200.107  1.00  0.00    -0.294 N 
ATOM    143  C4   DA A   6      94.088 100.243 200.418  1.00  0.00     0.167 A 
ATOM    144  N3   DA A   6      94.504  99.462 201.430  1.00  0.00    -0.222 NA
ATOM    145  C2   DA A   6      93.862  98.296 201.418  1.00  0.00     0.237 A 
ATOM    146  N1   DA A   6      92.918  97.858 200.575  1.00  0.00    -0.222 NA
ATOM    147  C6   DA A   6      92.517  98.671 199.575  1.00  0.00     0.155 A 
ATOM    148  N6   DA A   6      91.570  98.239 198.742  1.00  0.00    -0.382 N 
ATOM    149  H61  DA A   6      91.255  98.835 197.990  1.00  0.00     0.157 HD
ATOM    150  H62  DA A   6      91.167  97.320 198.859  1.00  0.00     0.157 HD
ATOM    151  C5   DA A   6      93.126  99.934 199.475  1.00  0.00     0.149 A 
ATOM    152  N7   DA A   6      92.957 100.984 198.584  1.00  0.00    -0.236 NA
ATOM    153  C8   DA A   6      93.807 101.890 199.000  1.00  0.00     0.214 A 
ATOM    154  C2'  DA A   6      96.962 101.728 200.654  1.00  0.00     0.199 C 
ATOM    155  O2'  DA A   6      97.688 101.977 201.843  1.00  0.00    -0.388 OA
ATOM    156 'HO2  DA A   6      98.600 102.110 201.578  1.00  0.00     0.210 HD
ATOM    157  C3'  DA A   6      97.489 102.577 199.503  1.00  0.00     0.198 C 
ATOM    158  O3'  DA A   6      98.912 102.686 199.516  1.00  0.00    -0.279 OA
ATOM    159  P    DG A   7      99.745 102.526 198.147  1.00  0.00     0.408 P 
ATOM    160  OP1  DG A   7     100.835 103.536 198.180  1.00  0.00    -0.624 OA
ATOM    161  OP2  DG A   7      98.800 102.509 197.001  1.00  0.00    -0.624 OA
ATOM    162  O5'  DG A   7     100.408 101.083 198.269  1.00  0.00    -0.287 OA
ATOM    163  C5'  DG A   7     100.949 100.626 199.507  1.00  0.00     0.216 C 
ATOM    164  C4'  DG A   7     100.502  99.209 199.780  1.00  0.00     0.180 C 
ATOM    165  O4'  DG A   7      99.084  99.213 200.088  1.00  0.00    -0.353 OA
ATOM    166  C1'  DG A   7      98.494  98.014 199.617  1.00  0.00     0.262 C 
ATOM    167  N9   DG A   7      97.392  98.361 198.726  1.00  0.00    -0.293 N 
ATOM    168  C4   DG A   7      96.267  97.609 198.493  1.00  0.00     0.187 A 
ATOM    169  N3   DG A   7      95.986  96.413 199.049  1.00  0.00    -0.044 NA
ATOM    170  C2   DG A   7      94.832  95.932 198.628  1.00  0.00     0.703 A 
ATOM    171  N2   DG A   7      94.404  94.751 199.078  1.00  0.00    -0.233 N 
ATOM    172  H21  DG A   7      94.973  94.241 199.738  1.00  0.00     0.174 HD
ATOM    173  H22  DG A   7      93.531  94.363 198.756  1.00  0.00     0.174 HD
ATOM    174  N1   DG A   7      94.014  96.573 197.733  1.00  0.00    -0.153 N 
ATOM    175  H1   DG A   7      93.149  96.123 197.478  1.00  0.00     0.187 HD
ATOM    176  C6   DG A   7      94.283  97.803 197.145  1.00  0.00     0.292 A 
ATOM    177  O6   DG A   7      93.475  98.291 196.347  1.00  0.00    -0.265 OA
ATOM    178  C5   DG A   7      95.522  98.333 197.587  1.00  0.00     0.173 A 
ATOM    179  N7   DG A   7      96.164  99.520 197.258  1.00  0.00    -0.234 NA
ATOM    180  C8   DG A   7      97.266  99.491 197.956  1.00  0.00     0.214 A 
ATOM    181  C2'  DG A   7      99.587  97.180 198.946  1.00  0.00     0.199 C 
ATOM    182  O2'  DG A   7     100.087  96.259 199.896  1.00  0.00    -0.388 OA
ATOM    183 'HO2  DG A   7     100.352  95.469 199.423  1.00  0.00     0.210 HD
ATOM    184  C3'  DG A   7     100.625  98.246 198.610  1.00  0.00     0.198 C 
ATOM    185  O3'  DG A   7     101.943  97.709 198.513  1.00  0.00    -0.279 OA
ATOM    186  P    DT A   8     102.902  98.149 197.299  1.00  0.00     0.408 P 
ATOM    187  OP1  DT A   8     102.448  99.471 196.797  1.00  0.00    -0.624 OA
ATOM    188  OP2  DT A   8     103.002  97.004 196.359  1.00  0.00    -0.624 OA
ATOM    189  O5'  DT A   8     104.326  98.344 197.989  1.00  0.00    -0.287 OA
ATOM    190  C5'  DT A   8     104.752  99.625 198.453  1.00  0.00     0.216 C 
ATOM    191  C4'  DT A   8     105.592  99.479 199.702  1.00  0.00     0.180 C 
ATOM    192  O4'  DT A   8     104.915  98.575 200.619  1.00  0.00    -0.353 OA
ATOM    193  C1'  DT A   8     105.857  97.703 201.216  1.00  0.00     0.264 C 
ATOM    194  N1   DT A   8     105.576  96.334 200.761  1.00  0.00    -0.280 N 
ATOM    195  C6   DT A   8     104.659  96.085 199.766  1.00  0.00     0.104 A 
ATOM    196  C2   DT A   8     106.265  95.302 201.368  1.00  0.00     0.331 A 
ATOM    197  O2   DT A   8     107.085  95.483 202.250  1.00  0.00    -0.246 OA
ATOM    198  N3   DT A   8     105.960  94.048 200.904  1.00  0.00    -0.275 N 
ATOM    199  H3   DT A   8     106.462  93.275 201.313  1.00  0.00     0.173 HD
ATOM    200  C4   DT A   8     105.055  93.729 199.916  1.00  0.00     0.250 A 
ATOM    201  O4   DT A   8     104.880  92.549 199.616  1.00  0.00    -0.268 OA
ATOM    202  C5   DT A   8     104.386  94.851 199.337  1.00  0.00     0.092 A 
ATOM    203  C2'  DT A   8     107.250  98.205 200.837  1.00  0.00     0.199 C 
ATOM    204  O2'  DT A   8     107.669  99.154 201.800  1.00  0.00    -0.388 OA
ATOM    205 'HO2  DT A   8     108.196  99.799 201.326  1.00  0.00     0.210 HD
ATOM    206  C3'  DT A   8     106.972  98.867 199.495  1.00  0.00     0.198 C 
ATOM    207  O3'  DT A   8     107.946  99.859 199.179  1.00  0.00    -0.279 OA
ATOM    208  P    DG A   9     108.272 100.206 197.642  1.00  0.00     0.408 P 
ATOM    209  OP1  DG A   9     108.274 101.686 197.526  1.00  0.00    -0.624 OA
ATOM    210  OP2  DG A   9     107.386  99.403 196.760  1.00  0.00    -0.624 OA
ATOM    211  O5'  DG A   9     109.768  99.696 197.440  1.00  0.00    -0.287 OA
ATOM    212  C5'  DG A   9     110.138  98.350 197.745  1.00  0.00     0.216 C 
ATOM    213  C4'  DG A   9     111.013  98.319 198.976  1.00  0.00     0.180 C 
ATOM    214  O4'  DG A   9     110.207  97.879 200.104  1.00  0.00    -0.353 OA
ATOM    215  C1'  DG A   9     110.920  96.916 200.856  1.00  0.00     0.262 C 
ATOM    216  N9   DG A   9     110.287  95.615 200.660  1.00  0.00    -0.293 N 
ATOM    217  C4   DG A   9     110.650  94.432 201.256  1.00  0.00     0.187 A 
ATOM    218  N3   DG A   9     111.661  94.265 202.134  1.00  0.00    -0.044 NA
ATOM    219  C2   DG A   9     111.765  93.009 202.531  1.00  0.00     0.703 A 
ATOM    220  N2   DG A   9     112.718  92.666 203.400  1.00  0.00    -0.233 N 
ATOM    221  H21  DG A   9     113.351  93.371 203.745  1.00  0.00     0.174 HD
ATOM    222  H22  DG A   9     112.809  91.707 203.705  1.00  0.00     0.174 HD
ATOM    223  N1   DG A   9     110.943  91.998 202.104  1.00  0.00    -0.153 N 
ATOM    224  H1   DG A   9     111.109  91.074 202.473  1.00  0.00     0.187 HD
ATOM    225  C6   DG A   9     109.897  92.145 201.201  1.00  0.00     0.292 A 
ATOM    226  O6   DG A   9     109.217  91.163 200.883  1.00  0.00    -0.265 OA
ATOM    227  C5   DG A   9     109.772  93.489 200.763  1.00  0.00     0.173 A 
ATOM    228  N7   DG A   9     108.873  94.068 199.876  1.00  0.00    -0.234 NA
ATOM    229  C8   DG A   9     109.218  95.325 199.846  1.00  0.00     0.214 A 
ATOM    230  C2'  DG A   9     112.372  96.968 200.385  1.00  0.00     0.199 C 
ATOM    231  O2'  DG A   9     113.045  97.993 201.092  1.00  0.00    -0.388 OA
ATOM    232 'HO2  DG A   9     113.545  98.489 200.443  1.00  0.00     0.210 HD
ATOM    233  C3'  DG A   9     112.186  97.345 198.921  1.00  0.00     0.198 C 
ATOM    234  O3'  DG A   9     113.351  97.951 198.368  1.00  0.00    -0.279 OA
ATOM    235  P    DG A  10     114.444  97.043 197.614  1.00  0.00     0.408 P 
ATOM    236  OP1  DG A  10     115.611  97.913 197.322  1.00  0.00    -0.624 OA
ATOM    237  OP2  DG A  10     113.770  96.323 196.503  1.00  0.00    -0.624 OA
ATOM    238  O5'  DG A  10     114.885  95.970 198.709  1.00  0.00    -0.287 OA
ATOM    239  C5'  DG A  10     115.764  96.327 199.775  1.00  0.00     0.216 C 
ATOM    240  C4'  DG A  10     116.329  95.084 200.426  1.00  0.00     0.180 C 
ATOM    241  O4'  DG A  10     115.270  94.410 201.159  1.00  0.00    -0.353 OA
ATOM    242  C1'  DG A  10     115.437  93.006 201.055  1.00  0.00     0.262 C 
ATOM    243  N9   DG A  10     114.265  92.451 200.385  1.00  0.00    -0.293 N 
ATOM    244  C4   DG A  10     113.897  91.128 200.343  1.00  0.00     0.187 A 
ATOM    245  N3   DG A  10     114.562  90.101 200.913  1.00  0.00    -0.044 NA
ATOM    246  C2   DG A  10     113.961  88.946 200.701  1.00  0.00     0.703 A 
ATOM    247  N2   DG A  10     114.488  87.824 201.196  1.00  0.00    -0.233 N 
ATOM    248  H21  DG A  10     115.344  87.871 201.728  1.00  0.00     0.174 HD
ATOM    249  H22  DG A  10     114.034  86.935 201.037  1.00  0.00     0.174 HD
ATOM    250  N1   DG A  10     112.799  88.804 199.988  1.00  0.00    -0.153 N 
ATOM    251  H1   DG A  10     112.422  87.874 199.885  1.00  0.00     0.187 HD
ATOM    252  C6   DG A  10     112.096  89.844 199.391  1.00  0.00     0.292 A 
ATOM    253  O6   DG A  10     111.055  89.603 198.768  1.00  0.00    -0.265 OA
ATOM    254  C5   DG A  10     112.730  91.094 199.609  1.00  0.00     0.173 A 
ATOM    255  N7   DG A  10     112.372  92.371 199.195  1.00  0.00    -0.234 NA
ATOM    256  C8   DG A  10     113.311  93.140 199.677  1.00  0.00     0.214 A 
ATOM    257  C2'  DG A  10     116.746  92.751 200.307  1.00  0.00     0.199 C 
ATOM    258  O2'  DG A  10     117.798  92.663 201.250  1.00  0.00    -0.388 OA
ATOM    259 'HO2  DG A  10     118.534  93.159 200.891  1.00  0.00     0.210 HD
ATOM    260  C3'  DG A  10     116.862  94.022 199.475  1.00  0.00     0.198 C 
ATOM    261  O3'  DG A  10     118.206  94.291 199.082  1.00  0.00    -0.279 OA
ATOM    262  P    DT A  11     118.778  93.671 197.712  1.00  0.00     0.408 P 
ATOM    263  OP1  DT A  11     120.252  93.851 197.727  1.00  0.00    -0.624 OA
ATOM    264  OP2  DT A  11     117.984  94.220 196.584  1.00  0.00    -0.624 OA
ATOM    265  O5'  DT A  11     118.463  92.113 197.829  1.00  0.00    -0.287 OA
ATOM    266  C5'  DT A  11     119.241  91.266 198.674  1.00  0.00     0.216 C 
ATOM    267  C4'  DT A  11     118.746  89.840 198.584  1.00  0.00     0.180 C 
ATOM    268  O4'  DT A  11     117.377  89.782 199.064  1.00  0.00    -0.353 OA
ATOM    269  C1'  DT A  11     116.645  88.835 198.305  1.00  0.00     0.264 C 
ATOM    270  N1   DT A  11     115.526  89.529 197.651  1.00  0.00    -0.280 N 
ATOM    271  C6   DT A  11     115.573  90.883 197.402  1.00  0.00     0.104 A 
ATOM    272  C2   DT A  11     114.423  88.776 197.295  1.00  0.00     0.331 A 
ATOM    273  O2   DT A  11     114.346  87.577 197.500  1.00  0.00    -0.246 OA
ATOM    274  N3   DT A  11     113.412  89.478 196.689  1.00  0.00    -0.275 N 
ATOM    275  H3   DT A  11     112.593  88.956 196.419  1.00  0.00     0.173 HD
ATOM    276  C4   DT A  11     113.392  90.827 196.412  1.00  0.00     0.250 A 
ATOM    277  O4   DT A  11     112.406  91.316 195.861  1.00  0.00    -0.268 OA
ATOM    278  C5   DT A  11     114.568  91.536 196.812  1.00  0.00     0.092 A 
ATOM    279  C2'  DT A  11     117.613  88.176 197.323  1.00  0.00     0.199 C 
ATOM    280  O2'  DT A  11     118.140  87.011 197.930  1.00  0.00    -0.388 OA
ATOM    281 'HO2  DT A  11     118.954  86.802 197.473  1.00  0.00     0.210 HD
ATOM    282  C3'  DT A  11     118.677  89.258 197.180  1.00  0.00     0.198 C 
ATOM    283  O3'  DT A  11     119.936  88.733 196.766  1.00  0.00    -0.279 OA
ATOM    284  P    DG A  12     120.216  88.460 195.206  1.00  0.00     0.408 P 
ATOM    285  OP1  DG A  12     121.689  88.481 195.012  1.00  0.00    -0.624 OA
ATOM    286  OP2  DG A  12     119.358  89.367 194.402  1.00  0.00    -0.624 OA
ATOM    287  O5'  DG A  12     119.709  86.966 194.980  1.00  0.00    -0.287 OA
ATOM    288  C5'  DG A  12     120.351  85.867 195.623  1.00  0.00     0.216 C 
ATOM    289  C4'  DG A  12     119.515  84.617 195.478  1.00  0.00     0.180 C 
ATOM    290  O4'  DG A  12     118.179  84.877 195.984  1.00  0.00    -0.353 OA
ATOM    291  C1'  DG A  12     117.229  84.165 195.210  1.00  0.00     0.262 C 
ATOM    292  N9   DG A  12     116.300  85.125 194.623  1.00  0.00    -0.293 N 
ATOM    293  C4   DG A  12     114.999  84.880 194.256  1.00  0.00     0.187 A 
ATOM    294  N3   DG A  12     114.351  83.702 194.374  1.00  0.00    -0.044 NA
ATOM    295  C2   DG A  12     113.109  83.777 193.934  1.00  0.00     0.703 A 
ATOM    296  N2   DG A  12     112.325  82.699 193.982  1.00  0.00    -0.233 N 
ATOM    297  H21  DG A  12     112.689  81.835 194.356  1.00  0.00     0.174 HD
ATOM    298  H22  DG A  12     111.374  82.747 193.644  1.00  0.00     0.174 HD
ATOM    299  N1   DG A  12     112.545  84.913 193.415  1.00  0.00    -0.153 N 
ATOM    300  H1   DG A  12     111.586  84.862 193.106  1.00  0.00     0.187 HD
ATOM    301  C6   DG A  12     113.189  86.137 193.282  1.00  0.00     0.292 A 
ATOM    302  O6   DG A  12     112.582  87.102 192.798  1.00  0.00    -0.265 OA
ATOM    303  C5   DG A  12     114.528  86.075 193.752  1.00  0.00     0.173 A 
ATOM    304  N7   DG A  12     115.513  87.053 193.804  1.00  0.00    -0.234 NA
ATOM    305  C8   DG A  12     116.542  86.444 194.324  1.00  0.00     0.214 A 
ATOM    306  C2'  DG A  12     117.996  83.341 194.173  1.00  0.00     0.199 C 
ATOM    307  O2'  DG A  12     118.241  82.056 194.712  1.00  0.00    -0.388 OA
ATOM    308 'HO2  DG A  12     119.176  81.884 194.595  1.00  0.00     0.210 HD
ATOM    309  C3'  DG A  12     119.286  84.143 194.050  1.00  0.00     0.198 C 
ATOM    310  O3'  DG A  12     120.376  83.355 193.579  1.00  0.00    -0.279 OA
ATOM    311  P    DG A  13     120.643  83.221 191.998  1.00  0.00     0.408 P 
ATOM    312  OP1  DG A  13     121.881  82.419 191.830  1.00  0.00    -0.624 OA
ATOM    313  OP2  DG A  13     120.554  84.572 191.386  1.00  0.00    -0.624 OA
ATOM    314  O5'  DG A  13     119.416  82.350 191.472  1.00  0.00    -0.287 OA
ATOM    315  C5'  DG A  13     119.199  81.023 191.950  1.00  0.00     0.216 C 
ATOM    316  C4'  DG A  13     117.934  80.453 191.351  1.00  0.00     0.180 C 
ATOM    317  O4'  DG A  13     116.825  81.345 191.634  1.00  0.00    -0.353 OA
ATOM    318  C1'  DG A  13     115.891  81.292 190.571  1.00  0.00     0.262 C 
ATOM    319  N9   DG A  13     115.681  82.650 190.075  1.00  0.00    -0.293 N 
ATOM    320  C4   DG A  13     114.555  83.122 189.443  1.00  0.00     0.187 A 
ATOM    321  N3   DG A  13     113.443  82.410 189.170  1.00  0.00    -0.044 NA
ATOM    322  C2   DG A  13     112.530  83.139 188.555  1.00  0.00     0.703 A 
ATOM    323  N2   DG A  13     111.363  82.586 188.211  1.00  0.00    -0.233 N 
ATOM    324  H21  DG A  13     111.197  81.614 188.429  1.00  0.00     0.174 HD
ATOM    325  H22  DG A  13     110.657  83.130 187.741  1.00  0.00     0.174 HD
ATOM    326  N1   DG A  13     112.692  84.460 188.231  1.00  0.00    -0.153 N 
ATOM    327  H1   DG A  13     111.932  84.926 187.760  1.00  0.00     0.187 HD
ATOM    328  C6   DG A  13     113.827  85.216 188.502  1.00  0.00     0.292 A 
ATOM    329  O6   DG A  13     113.866  86.406 188.168  1.00  0.00    -0.265 OA
ATOM    330  C5   DG A  13     114.820  84.446 189.165  1.00  0.00     0.173 A 
ATOM    331  N7   DG A  13     116.087  84.800 189.612  1.00  0.00    -0.234 NA
ATOM    332  C8   DG A  13     116.557  83.705 190.143  1.00  0.00     0.214 A 
ATOM    333  C2'  DG A  13     116.435  80.331 189.511  1.00  0.00     0.199 C 
ATOM    334  O2'  DG A  13     115.867  79.051 189.726  1.00  0.00    -0.388 OA
ATOM    335 'HO2  DG A  13     116.585  78.422 189.667  1.00  0.00     0.210 HD
ATOM    336  C3'  DG A  13     117.925  80.329 189.835  1.00  0.00     0.198 C 
ATOM    337  O3'  DG A  13     118.576  79.136 189.406  1.00  0.00    -0.279 OA
ATOM    338  P    DA A  14     119.495  79.157 188.086  1.00  0.00     0.408 P 
ATOM    339  OP1  DA A  14     119.988  77.772 187.871  1.00  0.00    -0.624 OA
ATOM    340  OP2  DA A  14     120.467  80.272 188.208  1.00  0.00    -0.624 OA
ATOM    341  O5'  DA A  14     118.473  79.507 186.914  1.00  0.00    -0.287 OA
ATOM    342  C5'  DA A  14     117.373  78.649 186.615  1.00  0.00     0.216 C 
ATOM    343  C4'  DA A  14     116.526  79.253 185.520  1.00  0.00     0.180 C 
ATOM    344  O4'  DA A  14     115.729  80.328 186.083  1.00  0.00    -0.353 OA
ATOM    345  C1'  DA A  14     115.655  81.402 185.162  1.00  0.00     0.262 C 
ATOM    346  N9   DA A  14     116.284  82.573 185.770  1.00  0.00    -0.294 N 
ATOM    347  C4   DA A  14     115.919  83.885 185.581  1.00  0.00     0.167 A 
ATOM    348  N3   DA A  14     114.923  84.350 184.807  1.00  0.00    -0.222 NA
ATOM    349  C2   DA A  14     114.865  85.679 184.867  1.00  0.00     0.237 A 
ATOM    350  N1   DA A  14     115.630  86.528 185.561  1.00  0.00    -0.222 NA
ATOM    351  C6   DA A  14     116.621  86.028 186.329  1.00  0.00     0.155 A 
ATOM    352  N6   DA A  14     117.380  86.877 187.021  1.00  0.00    -0.382 N 
ATOM    353  H61  DA A  14     118.126  86.525 187.604  1.00  0.00     0.157 HD
ATOM    354  H62  DA A  14     117.205  87.868 186.958  1.00  0.00     0.157 HD
ATOM    355  C5   DA A  14     116.790  84.632 186.350  1.00  0.00     0.149 A 
ATOM    356  N7   DA A  14     117.689  83.811 187.015  1.00  0.00    -0.236 NA
ATOM    357  C8   DA A  14     117.347  82.602 186.639  1.00  0.00     0.214 A 
ATOM    358  C2'  DA A  14     116.325  80.950 183.864  1.00  0.00     0.199 C 
ATOM    359  O2'  DA A  14     115.344  80.368 183.026  1.00  0.00    -0.388 OA
ATOM    360 'HO2  DA A  14     115.752  79.607 182.613  1.00  0.00     0.210 HD
ATOM    361  C3'  DA A  14     117.303  79.900 184.382  1.00  0.00     0.198 C 
ATOM    362  O3'  DA A  14     117.652  78.944 183.382  1.00  0.00    -0.279 OA
ATOM    363  P    DA A  15     119.155  78.892 182.809  1.00  0.00     0.408 P 
ATOM    364  OP1  DA A  15     119.518  77.458 182.682  1.00  0.00    -0.624 OA
ATOM    365  OP2  DA A  15     120.016  79.796 183.617  1.00  0.00    -0.624 OA
ATOM    366  O5'  DA A  15     119.024  79.490 181.338  1.00  0.00    -0.287 OA
ATOM    367  C5'  DA A  15     119.865  80.552 180.890  1.00  0.00     0.216 C 
ATOM    368  C4'  DA A  15     119.030  81.679 180.332  1.00  0.00     0.180 C 
ATOM    369  O4'  DA A  15     118.309  82.312 181.424  1.00  0.00    -0.353 OA
ATOM    370  C1'  DA A  15     118.310  83.718 181.249  1.00  0.00     0.262 C 
ATOM    371  N9   DA A  15     119.068  84.318 182.347  1.00  0.00    -0.294 N 
ATOM    372  C4   DA A  15     119.551  85.604 182.395  1.00  0.00     0.167 A 
ATOM    373  N3   DA A  15     119.428  86.556 181.454  1.00  0.00    -0.222 NA
ATOM    374  C2   DA A  15     120.024  87.680 181.845  1.00  0.00     0.237 A 
ATOM    375  N1   DA A  15     120.679  87.940 182.983  1.00  0.00    -0.222 NA
ATOM    376  C6   DA A  15     120.783  86.961 183.907  1.00  0.00     0.155 A 
ATOM    377  N6   DA A  15     121.433  87.222 185.041  1.00  0.00    -0.382 N 
ATOM    378  H61  DA A  15     121.522  86.505 185.747  1.00  0.00     0.157 HD
ATOM    379  H62  DA A  15     121.834  88.137 185.187  1.00  0.00     0.157 HD
ATOM    380  C5   DA A  15     120.194  85.720 183.613  1.00  0.00     0.149 A 
ATOM    381  N7   DA A  15     120.119  84.529 184.323  1.00  0.00    -0.236 NA
ATOM    382  C8   DA A  15     119.443  83.732 183.531  1.00  0.00     0.214 A 
ATOM    383  C2'  DA A  15     118.894  84.006 179.866  1.00  0.00     0.199 C 
ATOM    384  O2'  DA A  15     117.841  83.999 178.921  1.00  0.00    -0.388 OA
ATOM    385 'HO2  DA A  15     118.137  83.465 178.182  1.00  0.00     0.210 HD
ATOM    386  C3'  DA A  15     119.816  82.806 179.678  1.00  0.00     0.198 C 
ATOM    387  O3'  DA A  15     120.084  82.530 178.305  1.00  0.00    -0.279 OA
ATOM    388  P    DT A  16     120.972  83.556 177.438  1.00  0.00     0.408 P 
ATOM    389  OP1  DT A  16     120.297  84.878 177.482  1.00  0.00    -0.624 OA
ATOM    390  OP2  DT A  16     121.245  82.918 176.124  1.00  0.00    -0.624 OA
ATOM    391  O5'  DT A  16     122.351  83.659 178.234  1.00  0.00    -0.287 OA
ATOM    392  C5'  DT A  16     122.520  84.584 179.310  1.00  0.00     0.216 C 
ATOM    393  C4'  DT A  16     122.832  85.961 178.775  1.00  0.00     0.180 C 
ATOM    394  O4'  DT A  16     122.437  86.935 179.783  1.00  0.00    -0.353 OA
ATOM    395  C1'  DT A  16     123.536  87.761 180.100  1.00  0.00     0.264 C 
ATOM    396  N1   DT A  16     124.132  87.281 181.356  1.00  0.00    -0.280 N 
ATOM    397  C6   DT A  16     123.512  86.311 182.113  1.00  0.00     0.104 A 
ATOM    398  C2   DT A  16     125.337  87.832 181.754  1.00  0.00     0.331 A 
ATOM    399  O2   DT A  16     125.918  88.691 181.117  1.00  0.00    -0.246 OA
ATOM    400  N3   DT A  16     125.840  87.338 182.931  1.00  0.00    -0.275 N 
ATOM    401  H3   DT A  16     126.720  87.722 183.238  1.00  0.00     0.173 HD
ATOM    402  C4   DT A  16     125.274  86.374 183.734  1.00  0.00     0.250 A 
ATOM    403  O4   DT A  16     125.849  86.037 184.769  1.00  0.00    -0.268 OA
ATOM    404  C5   DT A  16     124.032  85.856 183.257  1.00  0.00     0.092 A 
ATOM    405  C2'  DT A  16     124.465  87.695 178.892  1.00  0.00     0.199 C 
ATOM    406  O2'  DT A  16     123.962  88.558 177.890  1.00  0.00    -0.388 OA
ATOM    407 'HO2  DT A  16     124.550  88.490 177.137  1.00  0.00     0.210 HD
ATOM    408  C3'  DT A  16     124.308  86.235 178.491  1.00  0.00     0.198 C 
ATOM    409  O3'  DT A  16     124.626  86.018 177.118  1.00  0.00    -0.279 OA
ATOM    410  P    DG A  17     126.027  85.334 176.717  1.00  0.00     0.408 P 
ATOM    411  OP1  DG A  17     125.918  84.914 175.297  1.00  0.00    -0.624 OA
ATOM    412  OP2  DG A  17     126.379  84.329 177.753  1.00  0.00    -0.624 OA
ATOM    413  O5'  DG A  17     127.083  86.524 176.796  1.00  0.00    -0.287 OA
ATOM    414  C5'  DG A  17     128.481  86.275 176.642  1.00  0.00     0.216 C 
ATOM    415  C4'  DG A  17     129.229  87.573 176.424  1.00  0.00     0.180 C 
ATOM    416  O4'  DG A  17     129.648  87.640 175.037  1.00  0.00    -0.353 OA
ATOM    417  C1'  DG A  17     129.661  88.989 174.610  1.00  0.00     0.262 C 
ATOM    418  N9   DG A  17     128.839  89.102 173.410  1.00  0.00    -0.293 N 
ATOM    419  C4   DG A  17     128.839  90.146 172.518  1.00  0.00     0.187 A 
ATOM    420  N3   DG A  17     129.603  91.255 172.598  1.00  0.00    -0.044 NA
ATOM    421  C2   DG A  17     129.378  92.081 171.593  1.00  0.00     0.703 A 
ATOM    422  N2   DG A  17     130.052  93.232 171.516  1.00  0.00    -0.233 N 
ATOM    423  H21  DG A  17     130.728  93.454 172.233  1.00  0.00     0.174 HD
ATOM    424  H22  DG A  17     129.886  93.872 170.756  1.00  0.00     0.174 HD
ATOM    425  N1   DG A  17     128.478  91.841 170.588  1.00  0.00    -0.153 N 
ATOM    426  H1   DG A  17     128.384  92.540 169.869  1.00  0.00     0.187 HD
ATOM    427  C6   DG A  17     127.682  90.707 170.483  1.00  0.00     0.292 A 
ATOM    428  O6   DG A  17     126.901  90.591 169.531  1.00  0.00    -0.265 OA
ATOM    429  C5   DG A  17     127.910  89.807 171.558  1.00  0.00     0.173 A 
ATOM    430  N7   DG A  17     127.337  88.574 171.839  1.00  0.00    -0.234 NA
ATOM    431  C8   DG A  17     127.919  88.196 172.945  1.00  0.00     0.214 A 
ATOM    432  C2'  DG A  17     129.172  89.863 175.766  1.00  0.00     0.199 C 
ATOM    433  O2'  DG A  17     130.301  90.389 176.440  1.00  0.00    -0.388 OA
ATOM    434 'HO2  DG A  17     130.044  91.249 176.771  1.00  0.00     0.210 HD
ATOM    435  C3'  DG A  17     128.430  88.850 176.635  1.00  0.00     0.198 C 
ATOM    436  O3'  DG A  17     128.409  89.229 178.008  1.00  0.00    -0.279 OA
ATOM    437  P    DG A  18     127.437  90.413 178.497  1.00  0.00     0.408 P 
ATOM    438  OP1  DG A  18     127.747  90.684 179.924  1.00  0.00    -0.624 OA
ATOM    439  OP2  DG A  18     126.050  90.072 178.100  1.00  0.00    -0.624 OA
ATOM    440  O5'  DG A  18     127.899  91.678 177.645  1.00  0.00    -0.287 OA
ATOM    441  C5'  DG A  18     127.033  92.798 177.470  1.00  0.00     0.216 C 
ATOM    442  C4'  DG A  18     127.579  93.720 176.404  1.00  0.00     0.180 C 
ATOM    443  O4'  DG A  18     127.901  92.934 175.224  1.00  0.00    -0.353 OA
ATOM    444  C1'  DG A  18     127.479  93.620 174.059  1.00  0.00     0.262 C 
ATOM    445  N9   DG A  18     126.398  92.855 173.444  1.00  0.00    -0.293 N 
ATOM    446  C4   DG A  18     125.959  92.955 172.145  1.00  0.00     0.187 A 
ATOM    447  N3   DG A  18     126.452  93.785 171.200  1.00  0.00    -0.044 NA
ATOM    448  C2   DG A  18     125.823  93.647 170.047  1.00  0.00     0.703 A 
ATOM    449  N2   DG A  18     126.184  94.396 169.002  1.00  0.00    -0.233 N 
ATOM    450  H21  DG A  18     126.937  95.060 169.103  1.00  0.00     0.174 HD
ATOM    451  H22  DG A  18     125.706  94.300 168.117  1.00  0.00     0.174 HD
ATOM    452  N1   DG A  18     124.793  92.768 169.832  1.00  0.00    -0.153 N 
ATOM    453  H1   DG A  18     124.379  92.737 168.913  1.00  0.00     0.187 HD
ATOM    454  C6   DG A  18     124.268  91.906 170.787  1.00  0.00     0.292 A 
ATOM    455  O6   DG A  18     123.334  91.153 170.487  1.00  0.00    -0.265 OA
ATOM    456  C5   DG A  18     124.933  92.039 172.034  1.00  0.00     0.173 A 
ATOM    457  N7   DG A  18     124.731  91.378 173.238  1.00  0.00    -0.234 NA
ATOM    458  C8   DG A  18     125.620  91.893 174.041  1.00  0.00     0.214 A 
ATOM    459  C2'  DG A  18     127.075  95.031 174.484  1.00  0.00     0.199 C 
ATOM    460  O2'  DG A  18     128.222  95.860 174.453  1.00  0.00    -0.388 OA
ATOM    461 'HO2  DG A  18     128.235  96.340 175.281  1.00  0.00     0.210 HD
ATOM    462  C3'  DG A  18     126.609  94.788 175.914  1.00  0.00     0.198 C 
ATOM    463  O3'  DG A  18     126.678  95.971 176.708  1.00  0.00    -0.279 OA
ATOM    464  P    DT A  19     125.571  96.239 177.845  1.00  0.00     0.408 P 
ATOM    465  OP1  DT A  19     126.108  97.303 178.733  1.00  0.00    -0.624 OA
ATOM    466  OP2  DT A  19     125.165  94.936 178.427  1.00  0.00    -0.624 OA
ATOM    467  O5'  DT A  19     124.329  96.838 177.044  1.00  0.00    -0.287 OA
ATOM    468  C5'  DT A  19     123.357  97.652 177.698  1.00  0.00     0.216 C 
ATOM    469  C4'  DT A  19     122.080  97.694 176.889  1.00  0.00     0.180 C 
ATOM    470  O4'  DT A  19     122.359  98.280 175.596  1.00  0.00    -0.353 OA
ATOM    471  C1'  DT A  19     121.453  97.764 174.642  1.00  0.00     0.264 C 
ATOM    472  N1   DT A  19     122.218  97.356 173.455  1.00  0.00    -0.280 N 
ATOM    473  C6   DT A  19     123.307  96.522 173.562  1.00  0.00     0.104 A 
ATOM    474  C2   DT A  19     121.808  97.838 172.225  1.00  0.00     0.331 A 
ATOM    475  O2   DT A  19     120.849  98.576 172.089  1.00  0.00    -0.246 OA
ATOM    476  N3   DT A  19     122.563  97.422 171.159  1.00  0.00    -0.275 N 
ATOM    477  H3   DT A  19     122.286  97.766 170.253  1.00  0.00     0.173 HD
ATOM    478  C4   DT A  19     123.658  96.591 171.193  1.00  0.00     0.250 A 
ATOM    479  O4   DT A  19     124.234  96.306 170.143  1.00  0.00    -0.268 OA
ATOM    480  C5   DT A  19     124.018  96.135 172.498  1.00  0.00     0.092 A 
ATOM    481  C2'  DT A  19     120.667  96.616 175.287  1.00  0.00     0.199 C 
ATOM    482  O2'  DT A  19     119.368  97.080 175.597  1.00  0.00    -0.388 OA
ATOM    483 'HO2  DT A  19     119.119  96.665 176.424  1.00  0.00     0.210 HD
ATOM    484  C3'  DT A  19     121.470  96.341 176.558  1.00  0.00     0.198 C 
ATOM    485  O3'  DT A  19     120.643  95.879 177.624  1.00  0.00    -0.279 OA
ATOM    486  P    DA A  20     120.902  94.428 178.267  1.00  0.00     0.408 P 
ATOM    487  OP1  DA A  20     122.299  94.405 178.770  1.00  0.00    -0.624 OA
ATOM    488  OP2  DA A  20     120.462  93.409 177.281  1.00  0.00    -0.624 OA
ATOM    489  O5'  DA A  20     119.912  94.377 179.516  1.00  0.00    -0.287 OA
ATOM    490  C5'  DA A  20     120.323  94.834 180.805  1.00  0.00     0.216 C 
ATOM    491  C4'  DA A  20     119.384  95.910 181.301  1.00  0.00     0.180 C 
ATOM    492  O4'  DA A  20     119.586  97.096 180.510  1.00  0.00    -0.353 OA
ATOM    493  C1'  DA A  20     118.430  97.882 180.601  1.00  0.00     0.262 C 
ATOM    494  N9   DA A  20     118.387  98.766 179.438  1.00  0.00    -0.294 N 
ATOM    495  C4   DA A  20     117.890 100.047 179.399  1.00  0.00     0.167 A 
ATOM    496  N3   DA A  20     117.347 100.743 180.412  1.00  0.00    -0.222 NA
ATOM    497  C2   DA A  20     116.976 101.955 180.003  1.00  0.00     0.237 A 
ATOM    498  N1   DA A  20     117.081 102.508 178.787  1.00  0.00    -0.222 NA
ATOM    499  C6   DA A  20     117.633 101.781 177.793  1.00  0.00     0.155 A 
ATOM    500  N6   DA A  20     117.740 102.332 176.585  1.00  0.00    -0.382 N 
ATOM    501  H61  DA A  20     118.152 101.803 175.829  1.00  0.00     0.157 HD
ATOM    502  H62  DA A  20     117.405 103.271 176.429  1.00  0.00     0.157 HD
ATOM    503  C5   DA A  20     118.065 100.480 178.097  1.00  0.00     0.149 A 
ATOM    504  N7   DA A  20     118.660  99.490 177.327  1.00  0.00    -0.236 NA
ATOM    505  C8   DA A  20     118.829  98.498 178.166  1.00  0.00     0.214 A 
ATOM    506  C2'  DA A  20     117.244  96.920 180.699  1.00  0.00     0.199 C 
ATOM    507  O2'  DA A  20     116.352  97.418 181.679  1.00  0.00    -0.388 OA
ATOM    508 'HO2  DA A  20     115.959  96.659 182.112  1.00  0.00     0.210 HD
ATOM    509  C3'  DA A  20     117.892  95.598 181.154  1.00  0.00     0.198 C 
ATOM    510  O3'  DA A  20     117.295  95.103 182.361  1.00  0.00    -0.279 OA
ATOM    511  P    DG A  21     117.810  95.614 183.802  1.00  0.00     0.408 P 
ATOM    512  OP1  DG A  21     117.791  97.099 183.807  1.00  0.00    -0.624 OA
ATOM    513  OP2  DG A  21     119.069  94.896 184.131  1.00  0.00    -0.624 OA
ATOM    514  O5'  DG A  21     116.685  95.106 184.810  1.00  0.00    -0.287 OA
ATOM    515  C5'  DG A  21     116.410  93.715 184.966  1.00  0.00     0.216 C 
ATOM    516  C4'  DG A  21     114.923  93.464 184.875  1.00  0.00     0.180 C 
ATOM    517  O4'  DG A  21     114.525  93.534 183.479  1.00  0.00    -0.353 OA
ATOM    518  C1'  DG A  21     114.148  92.250 183.020  1.00  0.00     0.262 C 
ATOM    519  N9   DG A  21     114.787  92.020 181.727  1.00  0.00    -0.293 N 
ATOM    520  C4   DG A  21     114.421  91.088 180.785  1.00  0.00     0.187 A 
ATOM    521  N3   DG A  21     113.399  90.213 180.887  1.00  0.00    -0.044 NA
ATOM    522  C2   DG A  21     113.300  89.444 179.818  1.00  0.00     0.703 A 
ATOM    523  N2   DG A  21     112.340  88.517 179.754  1.00  0.00    -0.233 N 
ATOM    524  H21  DG A  21     111.699  88.417 180.527  1.00  0.00     0.174 HD
ATOM    525  H22  DG A  21     112.257  87.926 178.940  1.00  0.00     0.174 HD
ATOM    526  N1   DG A  21     114.135  89.524 178.733  1.00  0.00    -0.153 N 
ATOM    527  H1   DG A  21     113.977  88.891 177.966  1.00  0.00     0.187 HD
ATOM    528  C6   DG A  21     115.193  90.416 178.605  1.00  0.00     0.292 A 
ATOM    529  O6   DG A  21     115.885  90.403 177.579  1.00  0.00    -0.265 OA
ATOM    530  C5   DG A  21     115.314  91.251 179.747  1.00  0.00     0.173 A 
ATOM    531  N7   DG A  21     116.221  92.263 180.029  1.00  0.00    -0.234 NA
ATOM    532  C8   DG A  21     115.869  92.689 181.211  1.00  0.00     0.214 A 
ATOM    533  C2'  DG A  21     114.554  91.241 184.094  1.00  0.00     0.199 C 
ATOM    534  O2'  DG A  21     113.599  90.195 184.117  1.00  0.00    -0.388 OA
ATOM    535 'HO2  DG A  21     112.766  90.588 184.378  1.00  0.00     0.210 HD
ATOM    536  C3'  DG A  21     114.463  92.092 185.355  1.00  0.00     0.198 C 
ATOM    537  O3'  DG A  21     113.139  92.145 185.879  1.00  0.00    -0.279 OA
ATOM    538  P    DA A  22     112.853  91.670 187.389  1.00  0.00     0.408 P 
ATOM    539  OP1  DA A  22     114.074  91.933 188.195  1.00  0.00    -0.624 OA
ATOM    540  OP2  DA A  22     112.287  90.297 187.342  1.00  0.00    -0.624 OA
ATOM    541  O5'  DA A  22     111.707  92.656 187.891  1.00  0.00    -0.287 OA
ATOM    542  C5'  DA A  22     111.948  94.054 188.032  1.00  0.00     0.216 C 
ATOM    543  C4'  DA A  22     110.765  94.842 187.518  1.00  0.00     0.180 C 
ATOM    544  O4'  DA A  22     110.874  94.960 186.074  1.00  0.00    -0.353 OA
ATOM    545  C1'  DA A  22     109.597  94.801 185.481  1.00  0.00     0.262 C 
ATOM    546  N9   DA A  22     109.618  93.589 184.662  1.00  0.00    -0.294 N 
ATOM    547  C4   DA A  22     108.547  93.037 184.002  1.00  0.00     0.167 A 
ATOM    548  N3   DA A  22     107.284  93.494 183.975  1.00  0.00    -0.222 NA
ATOM    549  C2   DA A  22     106.514  92.702 183.232  1.00  0.00     0.237 A 
ATOM    550  N1   DA A  22     106.841  91.590 182.562  1.00  0.00    -0.222 NA
ATOM    551  C6   DA A  22     108.119  91.158 182.610  1.00  0.00     0.155 A 
ATOM    552  N6   DA A  22     108.440  90.049 181.943  1.00  0.00    -0.382 N 
ATOM    553  H61  DA A  22     109.389  89.706 181.964  1.00  0.00     0.157 HD
ATOM    554  H62  DA A  22     107.728  89.560 181.423  1.00  0.00     0.157 HD
ATOM    555  C5   DA A  22     109.035  91.911 183.366  1.00  0.00     0.149 A 
ATOM    556  N7   DA A  22     110.391  91.753 183.620  1.00  0.00    -0.236 NA
ATOM    557  C8   DA A  22     110.687  92.771 184.390  1.00  0.00     0.214 A 
ATOM    558  C2'  DA A  22     108.569  94.763 186.612  1.00  0.00     0.199 C 
ATOM    559  O2'  DA A  22     108.149  96.086 186.888  1.00  0.00    -0.388 OA
ATOM    560 'HO2  DA A  22     108.213  96.204 187.837  1.00  0.00     0.210 HD
ATOM    561  C3'  DA A  22     109.405  94.199 187.753  1.00  0.00     0.198 C 
ATOM    562  O3'  DA A  22     108.880  94.541 189.033  1.00  0.00    -0.279 OA
ATOM    563  P    DC A  23     108.352  93.381 190.016  1.00  0.00     0.408 P 
ATOM    564  OP1  DC A  23     107.989  94.023 191.304  1.00  0.00    -0.624 OA
ATOM    565  OP2  DC A  23     109.333  92.266 190.002  1.00  0.00    -0.624 OA
ATOM    566  O5'  DC A  23     107.012  92.869 189.323  1.00  0.00    -0.287 OA
ATOM    567  C5'  DC A  23     105.999  93.785 188.906  1.00  0.00     0.216 C 
ATOM    568  C4'  DC A  23     104.959  93.068 188.077  1.00  0.00     0.180 C 
ATOM    569  O4'  DC A  23     105.445  92.963 186.709  1.00  0.00    -0.353 OA
ATOM    570  C1'  DC A  23     105.240  91.646 186.227  1.00  0.00     0.264 C 
ATOM    571  N1   DC A  23     106.548  90.977 186.126  1.00  0.00    -0.278 N 
ATOM    572  C6   DC A  23     107.608  91.395 186.883  1.00  0.00     0.102 A 
ATOM    573  C2   DC A  23     106.694  89.905 185.242  1.00  0.00     0.352 A 
ATOM    574  O2   DC A  23     105.719  89.546 184.567  1.00  0.00    -0.244 OA
ATOM    575  N3   DC A  23     107.893  89.286 185.146  1.00  0.00    -0.177 NA
ATOM    576  C4   DC A  23     108.920  89.703 185.889  1.00  0.00     0.128 A 
ATOM    577  N4   DC A  23     110.081  89.064 185.759  1.00  0.00    -0.384 N 
ATOM    578  H41  DC A  23     110.882  89.350 186.305  1.00  0.00     0.157 HD
ATOM    579  H42  DC A  23     110.157  88.295 185.111  1.00  0.00     0.157 HD
ATOM    580  C5   DC A  23     108.800  90.792 186.797  1.00  0.00     0.067 A 
ATOM    581  C2'  DC A  23     104.272  90.970 187.194  1.00  0.00     0.199 C 
ATOM    582  O2'  DC A  23     102.947  91.308 186.825  1.00  0.00    -0.388 OA
ATOM    583 'HO2  DC A  23     102.480  91.515 187.635  1.00  0.00     0.210 HD
ATOM    584  C3'  DC A  23     104.665  91.636 188.506  1.00  0.00     0.198 C 
ATOM    585  O3'  DC A  23     103.628  91.585 189.481  1.00  0.00    -0.279 OA
ATOM    586  P    DA A  24     103.802  90.656 190.783  1.00  0.00     0.408 P 
ATOM    587  OP1  DA A  24     102.597  90.847 191.629  1.00  0.00    -0.624 OA
ATOM    588  OP2  DA A  24     105.150  90.901 191.358  1.00  0.00    -0.624 OA
ATOM    589  O5'  DA A  24     103.776  89.172 190.202  1.00  0.00    -0.287 OA
ATOM    590  C5'  DA A  24     102.711  88.731 189.363  1.00  0.00     0.216 C 
ATOM    591  C4'  DA A  24     103.109  87.468 188.636  1.00  0.00     0.180 C 
ATOM    592  O4'  DA A  24     104.127  87.791 187.652  1.00  0.00    -0.353 OA
ATOM    593  C1'  DA A  24     105.083  86.747 187.591  1.00  0.00     0.262 C 
ATOM    594  N9   DA A  24     106.386  87.295 187.972  1.00  0.00    -0.294 N 
ATOM    595  C4   DA A  24     107.603  86.675 187.823  1.00  0.00     0.167 A 
ATOM    596  N3   DA A  24     107.840  85.457 187.307  1.00  0.00    -0.222 NA
ATOM    597  C2   DA A  24     109.142  85.186 187.323  1.00  0.00     0.237 A 
ATOM    598  N1   DA A  24     110.159  85.938 187.764  1.00  0.00    -0.222 NA
ATOM    599  C6   DA A  24     109.887  87.158 188.275  1.00  0.00     0.155 A 
ATOM    600  N6   DA A  24     110.900  87.908 188.709  1.00  0.00    -0.382 N 
ATOM    601  H61  DA A  24     110.723  88.824 189.095  1.00  0.00     0.157 HD
ATOM    602  H62  DA A  24     111.846  87.559 188.654  1.00  0.00     0.157 HD
ATOM    603  C5   DA A  24     108.541  87.564 188.316  1.00  0.00     0.149 A 
ATOM    604  N7   DA A  24     107.928  88.724 188.768  1.00  0.00    -0.236 NA
ATOM    605  C8   DA A  24     106.653  88.513 188.542  1.00  0.00     0.214 A 
ATOM    606  C2'  DA A  24     104.601  85.621 188.506  1.00  0.00     0.199 C 
ATOM    607  O2'  DA A  24     103.818  84.720 187.745  1.00  0.00    -0.388 OA
ATOM    608 'HO2  DA A  24     102.974  84.645 188.193  1.00  0.00     0.210 HD
ATOM    609  C3'  DA A  24     103.744  86.390 189.504  1.00  0.00     0.198 C 
ATOM    610  O3'  DA A  24     102.755  85.568 190.119  1.00  0.00    -0.279 OA
ATOM    611  P    DC A  25     102.825  85.282 191.700  1.00  0.00     0.408 P 
ATOM    612  OP1  DC A  25     101.618  84.496 192.061  1.00  0.00    -0.624 OA
ATOM    613  OP2  DC A  25     103.103  86.561 192.401  1.00  0.00    -0.624 OA
ATOM    614  O5'  DC A  25     104.098  84.339 191.862  1.00  0.00    -0.287 OA
ATOM    615  C5'  DC A  25     104.177  83.087 191.183  1.00  0.00     0.216 C 
ATOM    616  C4'  DC A  25     105.353  82.287 191.695  1.00  0.00     0.180 C 
ATOM    617  O4'  DC A  25     106.512  82.568 190.861  1.00  0.00    -0.353 OA
ATOM    618  C1'  DC A  25     107.676  82.620 191.666  1.00  0.00     0.264 C 
ATOM    619  N1   DC A  25     108.226  83.984 191.613  1.00  0.00    -0.278 N 
ATOM    620  C6   DC A  25     107.472  85.031 191.160  1.00  0.00     0.102 A 
ATOM    621  C2   DC A  25     109.539  84.195 192.039  1.00  0.00     0.352 A 
ATOM    622  O2   DC A  25     110.203  83.228 192.437  1.00  0.00    -0.244 OA
ATOM    623  N3   DC A  25     110.053  85.443 192.008  1.00  0.00    -0.177 NA
ATOM    624  C4   DC A  25     109.309  86.459 191.570  1.00  0.00     0.128 A 
ATOM    625  N4   DC A  25     109.860  87.673 191.563  1.00  0.00    -0.384 N 
ATOM    626  H41  DC A  25     109.331  88.469 191.240  1.00  0.00     0.157 HD
ATOM    627  H42  DC A  25     110.810  87.792 191.889  1.00  0.00     0.157 HD
ATOM    628  C5   DC A  25     107.968  86.274 191.123  1.00  0.00     0.067 A 
ATOM    629  C2'  DC A  25     107.276  82.189 193.076  1.00  0.00     0.199 C 
ATOM    630  O2'  DC A  25     107.407  80.783 193.172  1.00  0.00    -0.388 OA
ATOM    631 'HO2  DC A  25     107.977  80.608 193.923  1.00  0.00     0.210 HD
ATOM    632  C3'  DC A  25     105.817  82.622 193.106  1.00  0.00     0.198 C 
ATOM    633  O3'  DC A  25     105.064  81.929 194.097  1.00  0.00    -0.279 OA
ATOM    634  P    DG A  26     105.196  82.357 195.642  1.00  0.00     0.408 P 
ATOM    635  OP1  DG A  26     104.119  81.660 196.391  1.00  0.00    -0.624 OA
ATOM    636  OP2  DG A  26     105.299  83.838 195.715  1.00  0.00    -0.624 OA
ATOM    637  O5'  DG A  26     106.596  81.743 196.097  1.00  0.00    -0.287 OA
ATOM    638  C5'  DG A  26     106.781  80.333 196.196  1.00  0.00     0.216 C 
ATOM    639  C4'  DG A  26     108.147  80.022 196.762  1.00  0.00     0.180 C 
ATOM    640  O4'  DG A  26     109.170  80.574 195.886  1.00  0.00    -0.353 OA
ATOM    641  C1'  DG A  26     110.267  81.028 196.663  1.00  0.00     0.262 C 
ATOM    642  N9   DG A  26     110.421  82.464 196.454  1.00  0.00    -0.293 N 
ATOM    643  C4   DG A  26     111.534  83.218 196.739  1.00  0.00     0.187 A 
ATOM    644  N3   DG A  26     112.690  82.760 197.263  1.00  0.00    -0.044 NA
ATOM    645  C2   DG A  26     113.576  83.727 197.424  1.00  0.00     0.703 A 
ATOM    646  N2   DG A  26     114.778  83.445 197.932  1.00  0.00    -0.233 N 
ATOM    647  H21  DG A  26     114.995  82.493 198.189  1.00  0.00     0.174 HD
ATOM    648  H22  DG A  26     115.467  84.174 198.055  1.00  0.00     0.174 HD
ATOM    649  N1   DG A  26     113.349  85.040 197.097  1.00  0.00    -0.153 N 
ATOM    650  H1   DG A  26     114.094  85.702 197.260  1.00  0.00     0.187 HD
ATOM    651  C6   DG A  26     112.169  85.535 196.556  1.00  0.00     0.292 A 
ATOM    652  O6   DG A  26     112.072  86.741 196.296  1.00  0.00    -0.265 OA
ATOM    653  C5   DG A  26     111.206  84.508 196.377  1.00  0.00     0.173 A 
ATOM    654  N7   DG A  26     109.912  84.564 195.874  1.00  0.00    -0.234 NA
ATOM    655  C8   DG A  26     109.488  83.332 195.941  1.00  0.00     0.214 A 
ATOM    656  C2'  DG A  26     109.981  80.653 198.117  1.00  0.00     0.199 C 
ATOM    657  O2'  DG A  26     110.504  79.361 198.366  1.00  0.00    -0.388 OA
ATOM    658 'HO2  DG A  26     109.856  78.898 198.898  1.00  0.00     0.210 HD
ATOM    659  C3'  DG A  26     108.458  80.640 198.117  1.00  0.00     0.198 C 
ATOM    660  O3'  DG A  26     107.917  79.875 199.190  1.00  0.00    -0.279 OA
ATOM    661  P    DC A  27     107.410  80.618 200.523  1.00  0.00     0.408 P 
ATOM    662  OP1  DC A  27     106.937  79.569 201.463  1.00  0.00    -0.624 OA
ATOM    663  OP2  DC A  27     106.492  81.717 200.129  1.00  0.00    -0.624 OA
ATOM    664  O5'  DC A  27     108.732  81.271 201.130  1.00  0.00    -0.287 OA
ATOM    665  C5'  DC A  27     109.828  80.457 201.546  1.00  0.00     0.216 C 
ATOM    666  C4'  DC A  27     111.071  81.302 201.719  1.00  0.00     0.180 C 
ATOM    667  O4'  DC A  27     111.364  81.983 200.472  1.00  0.00    -0.353 OA
ATOM    668  C1'  DC A  27     111.978  83.231 200.748  1.00  0.00     0.264 C 
ATOM    669  N1   DC A  27     111.197  84.293 200.091  1.00  0.00    -0.278 N 
ATOM    670  C6   DC A  27     109.961  84.037 199.566  1.00  0.00     0.102 A 
ATOM    671  C2   DC A  27     111.742  85.577 200.011  1.00  0.00     0.352 A 
ATOM    672  O2   DC A  27     112.866  85.784 200.493  1.00  0.00    -0.244 OA
ATOM    673  N3   DC A  27     111.037  86.560 199.413  1.00  0.00    -0.177 NA
ATOM    674  C4   DC A  27     109.833  86.300 198.901  1.00  0.00     0.128 A 
ATOM    675  N4   DC A  27     109.178  87.301 198.316  1.00  0.00    -0.384 N 
ATOM    676  H41  DC A  27     108.263  87.146 197.915  1.00  0.00     0.157 HD
ATOM    677  H42  DC A  27     109.601  88.218 198.270  1.00  0.00     0.157 HD
ATOM    678  C5   DC A  27     109.251  85.001 198.965  1.00  0.00     0.067 A 
ATOM    679  C2'  DC A  27     112.061  83.386 202.268  1.00  0.00     0.199 C 
ATOM    680  O2'  DC A  27     113.338  82.952 202.694  1.00  0.00    -0.388 OA
ATOM    681 'HO2  DC A  27     113.200  82.382 203.452  1.00  0.00     0.210 HD
ATOM    682  C3'  DC A  27     110.967  82.431 202.732  1.00  0.00     0.198 C 
ATOM    683  O3'  DC A  27     111.181  81.967 204.062  1.00  0.00    -0.279 OA
ATOM    684  P    DC A  28     110.621  82.821 205.308  1.00  0.00     0.408 P 
ATOM    685  OP1  DC A  28     110.925  82.051 206.542  1.00  0.00    -0.624 OA
ATOM    686  OP2  DC A  28     109.220  83.215 205.015  1.00  0.00    -0.624 OA
ATOM    687  O5'  DC A  28     111.517  84.140 205.308  1.00  0.00    -0.287 OA
ATOM    688  C5'  DC A  28     112.793  84.163 205.947  1.00  0.00     0.216 C 
ATOM    689  C4'  DC A  28     113.278  85.587 206.101  1.00  0.00     0.180 C 
ATOM    690  O4'  DC A  28     113.487  86.162 204.781  1.00  0.00    -0.353 OA
ATOM    691  C1'  DC A  28     113.109  87.528 204.792  1.00  0.00     0.264 C 
ATOM    692  N1   DC A  28     111.993  87.710 203.850  1.00  0.00    -0.278 N 
ATOM    693  C6   DC A  28     111.166  86.669 203.535  1.00  0.00     0.102 A 
ATOM    694  C2   DC A  28     111.790  88.968 203.278  1.00  0.00     0.352 A 
ATOM    695  O2   DC A  28     112.553  89.898 203.582  1.00  0.00    -0.244 OA
ATOM    696  N3   DC A  28     110.769  89.145 202.412  1.00  0.00    -0.177 NA
ATOM    697  C4   DC A  28     109.969  88.122 202.109  1.00  0.00     0.128 A 
ATOM    698  N4   DC A  28     108.977  88.344 201.247  1.00  0.00    -0.384 N 
ATOM    699  H41  DC A  28     108.348  87.599 200.988  1.00  0.00     0.157 HD
ATOM    700  H42  DC A  28     108.860  89.267 200.851  1.00  0.00     0.157 HD
ATOM    701  C5   DC A  28     110.151  86.827 202.676  1.00  0.00     0.067 A 
ATOM    702  C2'  DC A  28     112.758  87.896 206.233  1.00  0.00     0.199 C 
ATOM    703  O2'  DC A  28     113.932  88.348 206.880  1.00  0.00    -0.388 OA
ATOM    704 'HO2  DC A  28     114.050  87.799 207.657  1.00  0.00     0.210 HD
ATOM    705  C3'  DC A  28     112.309  86.547 206.778  1.00  0.00     0.198 C 
ATOM    706  O3'  DC A  28     112.402  86.479 208.199  1.00  0.00    -0.279 OA
ATOM    707  P    DG A  29     111.246  87.132 209.107  1.00  0.00     0.408 P 
ATOM    708  OP1  DG A  29     111.594  86.857 210.525  1.00  0.00    -0.624 OA
ATOM    709  OP2  DG A  29     109.930  86.694 208.577  1.00  0.00    -0.624 OA
ATOM    710  O5'  DG A  29     111.393  88.700 208.855  1.00  0.00    -0.287 OA
ATOM    711  C5'  DG A  29     112.574  89.399 209.248  1.00  0.00     0.216 C 
ATOM    712  C4'  DG A  29     112.319  90.890 209.269  1.00  0.00     0.180 C 
ATOM    713  O4'  DG A  29     112.375  91.406 207.914  1.00  0.00    -0.353 OA
ATOM    714  C1'  DG A  29     111.531  92.539 207.808  1.00  0.00     0.262 C 
ATOM    715  N9   DG A  29     110.629  92.341 206.678  1.00  0.00    -0.293 N 
ATOM    716  C4   DG A  29     110.088  93.322 205.884  1.00  0.00     0.187 A 
ATOM    717  N3   DG A  29     110.306  94.649 206.003  1.00  0.00    -0.044 NA
ATOM    718  C2   DG A  29     109.643  95.342 205.095  1.00  0.00     0.703 A 
ATOM    719  N2   DG A  29     109.749  96.674 205.069  1.00  0.00    -0.233 N 
ATOM    720  H21  DG A  29     110.337  97.136 205.747  1.00  0.00     0.174 HD
ATOM    721  H22  DG A  29     109.249  97.211 204.376  1.00  0.00     0.174 HD
ATOM    722  N1   DG A  29     108.827  94.782 204.147  1.00  0.00    -0.153 N 
ATOM    723  H1   DG A  29     108.364  95.399 203.497  1.00  0.00     0.187 HD
ATOM    724  C6   DG A  29     108.585  93.421 204.004  1.00  0.00     0.292 A 
ATOM    725  O6   DG A  29     107.824  93.023 203.113  1.00  0.00    -0.265 OA
ATOM    726  C5   DG A  29     109.295  92.660 204.971  1.00  0.00     0.173 A 
ATOM    727  N7   DG A  29     109.341  91.288 205.182  1.00  0.00    -0.234 NA
ATOM    728  C8   DG A  29     110.143  91.147 206.202  1.00  0.00     0.214 A 
ATOM    729  C2'  DG A  29     110.803  92.713 209.143  1.00  0.00     0.199 C 
ATOM    730  O2'  DG A  29     111.491  93.687 209.905  1.00  0.00    -0.388 OA
ATOM    731 'HO2  DG A  29     110.886  94.423 210.012  1.00  0.00     0.210 HD
ATOM    732  C3'  DG A  29     110.945  91.322 209.757  1.00  0.00     0.198 C 
ATOM    733  O3'  DG A  29     110.877  91.345 211.181  1.00  0.00    -0.279 OA
ATOM    734  P    DG A  30     109.446  91.274 211.912  1.00  0.00     0.408 P 
ATOM    735  OP1  DG A  30     109.689  91.386 213.374  1.00  0.00    -0.624 OA
ATOM    736  OP2  DG A  30     108.708  90.099 211.382  1.00  0.00    -0.624 OA
ATOM    737  O5'  DG A  30     108.694  92.595 211.431  1.00  0.00    -0.287 OA
ATOM    738  C5'  DG A  30     108.879  93.837 212.109  1.00  0.00     0.216 C 
ATOM    739  C4'  DG A  30     108.478  94.988 211.212  1.00  0.00     0.180 C 
ATOM    740  O4'  DG A  30     108.861  94.679 209.845  1.00  0.00    -0.353 OA
ATOM    741  C1'  DG A  30     107.861  95.134 208.951  1.00  0.00     0.262 C 
ATOM    742  N9   DG A  30     107.301  93.976 208.258  1.00  0.00    -0.293 N 
ATOM    743  C4   DG A  30     106.625  93.990 207.063  1.00  0.00     0.187 A 
ATOM    744  N3   DG A  30     106.358  95.081 206.315  1.00  0.00    -0.044 NA
ATOM    745  C2   DG A  30     105.690  94.774 205.218  1.00  0.00     0.703 A 
ATOM    746  N2   DG A  30     105.339  95.741 204.366  1.00  0.00    -0.233 N 
ATOM    747  H21  DG A  30     105.589  96.698 204.574  1.00  0.00     0.174 HD
ATOM    748  H22  DG A  30     104.833  95.523 203.521  1.00  0.00     0.174 HD
ATOM    749  N1   DG A  30     105.317  93.500 204.875  1.00  0.00    -0.153 N 
ATOM    750  H1   DG A  30     104.812  93.368 204.013  1.00  0.00     0.187 HD
ATOM    751  C6   DG A  30     105.581  92.361 205.628  1.00  0.00     0.292 A 
ATOM    752  O6   DG A  30     105.198  91.257 205.226  1.00  0.00    -0.265 OA
ATOM    753  C5   DG A  30     106.296  92.674 206.814  1.00  0.00     0.173 A 
ATOM    754  N7   DG A  30     106.755  91.850 207.832  1.00  0.00    -0.234 NA
ATOM    755  C8   DG A  30     107.342  92.665 208.664  1.00  0.00     0.214 A 
ATOM    756  C2'  DG A  30     106.833  95.920 209.766  1.00  0.00     0.199 C 
ATOM    757  O2'  DG A  30     107.224  97.280 209.797  1.00  0.00    -0.388 OA
ATOM    758 'HO2  DG A  30     107.094  97.581 210.696  1.00  0.00     0.210 HD
ATOM    759  C3'  DG A  30     106.983  95.274 211.139  1.00  0.00     0.198 C 
ATOM    760  O3'  DG A  30     106.565  96.140 212.193  1.00  0.00    -0.279 OA
ATOM    761  P    DA A  31     105.024  96.154 212.654  1.00  0.00     0.408 P 
ATOM    762  OP1  DA A  31     104.866  97.274 213.618  1.00  0.00    -0.624 OA
ATOM    763  OP2  DA A  31     104.646  94.777 213.061  1.00  0.00    -0.624 OA
ATOM    764  O5'  DA A  31     104.225  96.521 211.325  1.00  0.00    -0.287 OA
ATOM    765  C5'  DA A  31     104.143  97.869 210.862  1.00  0.00     0.216 C 
ATOM    766  C4'  DA A  31     103.047  97.999 209.828  1.00  0.00     0.180 C 
ATOM    767  O4'  DA A  31     103.408  97.204 208.665  1.00  0.00    -0.353 OA
ATOM    768  C1'  DA A  31     102.282  96.476 208.212  1.00  0.00     0.262 C 
ATOM    769  N9   DA A  31     102.525  95.055 208.452  1.00  0.00    -0.294 N 
ATOM    770  C4   DA A  31     101.928  94.005 207.796  1.00  0.00     0.167 A 
ATOM    771  N3   DA A  31     101.011  94.073 206.814  1.00  0.00    -0.222 NA
ATOM    772  C2   DA A  31     100.657  92.851 206.420  1.00  0.00     0.237 A 
ATOM    773  N1   DA A  31     101.084  91.662 206.861  1.00  0.00    -0.222 NA
ATOM    774  C6   DA A  31     102.004  91.631 207.847  1.00  0.00     0.155 A 
ATOM    775  N6   DA A  31     102.428  90.445 208.285  1.00  0.00    -0.382 N 
ATOM    776  H61  DA A  31     103.116  90.396 209.023  1.00  0.00     0.157 HD
ATOM    777  H62  DA A  31     102.051  89.601 207.880  1.00  0.00     0.157 HD
ATOM    778  C5   DA A  31     102.462  92.859 208.355  1.00  0.00     0.149 A 
ATOM    779  N7   DA A  31     103.382  93.177 209.344  1.00  0.00    -0.236 NA
ATOM    780  C8   DA A  31     103.383  94.487 209.362  1.00  0.00     0.214 A 
ATOM    781  C2'  DA A  31     101.060  97.023 208.948  1.00  0.00     0.199 C 
ATOM    782  O2'  DA A  31     100.546  98.118 208.213  1.00  0.00    -0.388 OA
ATOM    783 'HO2  DA A  31     101.270  98.731 208.083  1.00  0.00     0.210 HD
ATOM    784  C3'  DA A  31     101.682  97.479 210.262  1.00  0.00     0.198 C 
ATOM    785  O3'  DA A  31     100.918  98.501 210.896  1.00  0.00    -0.279 OA
ATOM    786  P    DT A  32      99.822  98.110 212.006  1.00  0.00     0.408 P 
ATOM    787  OP1  DT A  32      99.168  99.371 212.438  1.00  0.00    -0.624 OA
ATOM    788  OP2  DT A  32     100.468  97.235 213.017  1.00  0.00    -0.624 OA
ATOM    789  O5'  DT A  32      98.747  97.246 211.205  1.00  0.00    -0.287 OA
ATOM    790  C5'  DT A  32      97.738  96.507 211.893  1.00  0.00     0.216 C 
ATOM    791  C4'  DT A  32      96.580  96.217 210.965  1.00  0.00     0.180 C 
ATOM    792  O4'  DT A  32      96.039  97.474 210.484  1.00  0.00    -0.353 OA
ATOM    793  C1'  DT A  32      95.603  97.325 209.145  1.00  0.00     0.264 C 
ATOM    794  N1   DT A  32      96.319  98.304 208.313  1.00  0.00    -0.280 N 
ATOM    795  C6   DT A  32      97.521  98.842 208.716  1.00  0.00     0.104 A 
ATOM    796  C2   DT A  32      95.743  98.670 207.111  1.00  0.00     0.331 A 
ATOM    797  O2   DT A  32      94.685  98.214 206.716  1.00  0.00    -0.246 OA
ATOM    798  N3   DT A  32      96.453  99.591 206.384  1.00  0.00    -0.275 N 
ATOM    799  H3   DT A  32      96.049  99.872 205.504  1.00  0.00     0.173 HD
ATOM    800  C4   DT A  32      97.653 100.170 206.727  1.00  0.00     0.250 A 
ATOM    801  O4   DT A  32      98.163 100.993 205.968  1.00  0.00    -0.268 OA
ATOM    802  C5   DT A  32      98.186  99.737 207.980  1.00  0.00     0.092 A 
ATOM    803  C2'  DT A  32      95.838  95.872 208.727  1.00  0.00     0.199 C 
ATOM    804  O2'  DT A  32      94.644  95.144 208.940  1.00  0.00    -0.388 OA
ATOM    805 'HO2  DT A  32      94.322  94.889 208.074  1.00  0.00     0.210 HD
ATOM    806  C3'  DT A  32      96.931  95.442 209.703  1.00  0.00     0.198 C 
ATOM    807  O3'  DT A  32      96.921  94.037 209.943  1.00  0.00    -0.279 OA
ATOM    808  P    DT A  33      97.877  93.071 209.084  1.00  0.00     0.408 P 
ATOM    809  OP1  DT A  33      97.724  91.699 209.632  1.00  0.00    -0.624 OA
ATOM    810  OP2  DT A  33      99.226  93.687 209.019  1.00  0.00    -0.624 OA
ATOM    811  O5'  DT A  33      97.243  93.097 207.622  1.00  0.00    -0.287 OA
ATOM    812  C5'  DT A  33      95.896  92.679 207.400  1.00  0.00     0.216 C 
ATOM    813  C4'  DT A  33      95.507  92.919 205.960  1.00  0.00     0.180 C 
ATOM    814  O4'  DT A  33      95.263  94.340 205.773  1.00  0.00    -0.353 OA
ATOM    815  C1'  DT A  33      95.791  94.758 204.528  1.00  0.00     0.264 C 
ATOM    816  N1   DT A  33      96.864  95.728 204.786  1.00  0.00    -0.280 N 
ATOM    817  C6   DT A  33      97.776  95.526 205.798  1.00  0.00     0.104 A 
ATOM    818  C2   DT A  33      96.931  96.849 203.979  1.00  0.00     0.331 A 
ATOM    819  O2   DT A  33      96.142  97.064 203.076  1.00  0.00    -0.246 OA
ATOM    820  N3   DT A  33      97.955  97.712 204.271  1.00  0.00    -0.275 N 
ATOM    821  H3   DT A  33      98.028  98.534 203.691  1.00  0.00     0.173 HD
ATOM    822  C4   DT A  33      98.897  97.573 205.265  1.00  0.00     0.250 A 
ATOM    823  O4   DT A  33      99.765  98.434 205.397  1.00  0.00    -0.268 OA
ATOM    824  C5   DT A  33      98.760  96.391 206.054  1.00  0.00     0.092 A 
ATOM    825  C2'  DT A  33      96.256  93.510 203.777  1.00  0.00     0.199 C 
ATOM    826  O2'  DT A  33      95.185  93.019 202.996  1.00  0.00    -0.388 OA
ATOM    827 'HO2  DT A  33      94.717  92.389 203.548  1.00  0.00     0.210 HD
ATOM    828  C3'  DT A  33      96.570  92.564 204.930  1.00  0.00     0.198 C 
ATOM    829  O3'  DT A  33      96.477  91.196 204.543  1.00  0.00    -0.279 OA
ATOM    830  P    DT A  34      97.712  90.204 204.808  1.00  0.00     0.408 P 
ATOM    831  OP1  DT A  34      97.631  89.121 203.794  1.00  0.00    -0.624 OA
ATOM    832  OP2  DT A  34      97.730  89.858 206.251  1.00  0.00    -0.624 OA
ATOM    833  O5'  DT A  34      98.997  91.094 204.491  1.00  0.00    -0.287 OA
ATOM    834  C5'  DT A  34      99.649  91.026 203.224  1.00  0.00     0.216 C 
ATOM    835  C4'  DT A  34      98.968  91.946 202.237  1.00  0.00     0.180 C 
ATOM    836  O4'  DT A  34      99.038  93.308 202.746  1.00  0.00    -0.353 OA
ATOM    837  C1'  DT A  34      99.824  94.103 201.881  1.00  0.00     0.264 C 
ATOM    838  N1   DT A  34     100.664  94.990 202.700  1.00  0.00    -0.280 N 
ATOM    839  C6   DT A  34     100.577  96.358 202.580  1.00  0.00     0.104 A 
ATOM    840  C2   DT A  34     101.544  94.409 203.597  1.00  0.00     0.331 A 
ATOM    841  O2   DT A  34     101.664  93.205 203.724  1.00  0.00    -0.246 OA
ATOM    842  N3   DT A  34     102.284  95.293 204.338  1.00  0.00    -0.275 N 
ATOM    843  H3   DT A  34     102.912  94.895 205.020  1.00  0.00     0.173 HD
ATOM    844  C4   DT A  34     102.247  96.666 204.269  1.00  0.00     0.250 A 
ATOM    845  O4   DT A  34     102.984  97.326 205.001  1.00  0.00    -0.268 OA
ATOM    846  C5   DT A  34     101.323  97.190 203.313  1.00  0.00     0.092 A 
ATOM    847  C2'  DT A  34     100.607  93.144 200.989  1.00  0.00     0.199 C 
ATOM    848  O2'  DT A  34     100.848  93.780 199.746  1.00  0.00    -0.388 OA
ATOM    849 'HO2  DT A  34     100.675  93.141 199.057  1.00  0.00     0.210 HD
ATOM    850  C3'  DT A  34      99.614  91.995 200.856  1.00  0.00     0.198 C 
ATOM    851  O3'  DT A  34      98.641  92.222 199.838  1.00  0.00    -0.279 OA
ATOM    852  P    DA A  35      98.841  91.574 198.379  1.00  0.00     0.408 P 
ATOM    853  OP1  DA A  35      99.331  90.186 198.566  1.00  0.00    -0.624 OA
ATOM    854  OP2  DA A  35      99.634  92.527 197.560  1.00  0.00    -0.624 OA
ATOM    855  O5'  DA A  35      97.366  91.498 197.780  1.00  0.00    -0.287 OA
ATOM    856  C5'  DA A  35      96.324  90.818 198.480  1.00  0.00     0.216 C 
ATOM    857  C4'  DA A  35      95.514  89.968 197.525  1.00  0.00     0.180 C 
ATOM    858  O4'  DA A  35      94.115  90.351 197.647  1.00  0.00    -0.353 OA
ATOM    859  C1'  DA A  35      93.557  90.538 196.361  1.00  0.00     0.262 C 
ATOM    860  N9   DA A  35      93.385  91.974 196.139  1.00  0.00    -0.294 N 
ATOM    861  C4   DA A  35      92.429  92.568 195.352  1.00  0.00     0.167 A 
ATOM    862  N3   DA A  35      91.468  91.958 194.638  1.00  0.00    -0.222 NA
ATOM    863  C2   DA A  35      90.722  92.853 193.993  1.00  0.00     0.237 A 
ATOM    864  N1   DA A  35      90.822  94.190 193.983  1.00  0.00    -0.222 NA
ATOM    865  C6   DA A  35      91.798  94.770 194.713  1.00  0.00     0.155 A 
ATOM    866  N6   DA A  35      91.894  96.101 194.704  1.00  0.00    -0.382 N 
ATOM    867  H61  DA A  35      92.613  96.566 195.241  1.00  0.00     0.157 HD
ATOM    868  H62  DA A  35      91.245  96.651 194.159  1.00  0.00     0.157 HD
ATOM    869  C5   DA A  35      92.657  93.928 195.443  1.00  0.00     0.149 A 
ATOM    870  N7   DA A  35      93.737  94.189 196.276  1.00  0.00    -0.236 NA
ATOM    871  C8   DA A  35      94.132  93.000 196.660  1.00  0.00     0.214 A 
ATOM    872  C2'  DA A  35      94.506  89.871 195.371  1.00  0.00     0.199 C 
ATOM    873  O2'  DA A  35      94.216  88.487 195.324  1.00  0.00    -0.388 OA
ATOM    874 'HO2  DA A  35      95.059  88.031 195.333  1.00  0.00     0.210 HD
ATOM    875  C3'  DA A  35      95.848  90.129 196.044  1.00  0.00     0.198 C 
ATOM    876  O3'  DA A  35      96.848  89.205 195.625  1.00  0.00    -0.279 OA
ATOM    877  P    DG A  36      97.572  89.401 194.201  1.00  0.00     0.408 P 
ATOM    878  OP1  DG A  36      98.583  88.321 194.072  1.00  0.00    -0.624 OA
ATOM    879  OP2  DG A  36      97.995  90.819 194.080  1.00  0.00    -0.624 OA
ATOM    880  O5'  DG A  36      96.417  89.131 193.136  1.00  0.00    -0.287 OA
ATOM    881  C5'  DG A  36      96.005  87.801 192.819  1.00  0.00     0.216 C 
ATOM    882  C4'  DG A  36      94.874  87.825 191.814  1.00  0.00     0.180 C 
ATOM    883  O4'  DG A  36      93.917  88.848 192.192  1.00  0.00    -0.353 OA
ATOM    884  C1'  DG A  36      93.321  89.393 191.028  1.00  0.00     0.262 C 
ATOM    885  N9   DG A  36      93.522  90.839 191.042  1.00  0.00    -0.293 N 
ATOM    886  C4   DG A  36      92.770  91.776 190.376  1.00  0.00     0.187 A 
ATOM    887  N3   DG A  36      91.705  91.522 189.585  1.00  0.00    -0.044 NA
ATOM    888  C2   DG A  36      91.189  92.630 189.083  1.00  0.00     0.703 A 
ATOM    889  N2   DG A  36      90.124  92.562 188.277  1.00  0.00    -0.233 N 
ATOM    890  H21  DG A  36      89.722  91.663 188.057  1.00  0.00     0.174 HD
ATOM    891  H22  DG A  36      89.721  93.404 187.891  1.00  0.00     0.174 HD
ATOM    892  N1   DG A  36      91.676  93.888 189.334  1.00  0.00    -0.153 N 
ATOM    893  H1   DG A  36      91.208  94.668 188.898  1.00  0.00     0.187 HD
ATOM    894  C6   DG A  36      92.769  94.174 190.143  1.00  0.00     0.292 A 
ATOM    895  O6   DG A  36      93.126  95.347 190.301  1.00  0.00    -0.265 OA
ATOM    896  C5   DG A  36      93.335  92.993 190.692  1.00  0.00     0.173 A 
ATOM    897  N7   DG A  36      94.423  92.826 191.541  1.00  0.00    -0.234 NA
ATOM    898  C8   DG A  36      94.494  91.535 191.719  1.00  0.00     0.214 A 
ATOM    899  C2'  DG A  36      93.942  88.700 189.812  1.00  0.00     0.199 C 
ATOM    900  O2'  DG A  36      93.113  87.618 189.430  1.00  0.00    -0.388 OA
ATOM    901 'HO2  DG A  36      93.686  86.968 189.026  1.00  0.00     0.210 HD
ATOM    902  C3'  DG A  36      95.261  88.198 190.390  1.00  0.00     0.198 C 
ATOM    903  O3'  DG A  36      95.776  87.076 189.677  1.00  0.00    -0.279 OA
ATOM    904  P    DG A  37      96.797  87.304 188.456  1.00  0.00     0.408 P 
ATOM    905  OP1  DG A  37      97.241  85.963 187.996  1.00  0.00    -0.624 OA
ATOM    906  OP2  DG A  37      97.810  88.309 188.868  1.00  0.00    -0.624 OA
ATOM    907  O5'  DG A  37      95.893  87.942 187.309  1.00  0.00    -0.287 OA
ATOM    908  C5'  DG A  37      95.053  87.126 186.494  1.00  0.00     0.216 C 
ATOM    909  C4'  DG A  37      94.115  87.990 185.680  1.00  0.00     0.180 C 
ATOM    910  O4'  DG A  37      93.589  89.048 186.521  1.00  0.00    -0.353 OA
ATOM    911  C1'  DG A  37      93.306  90.185 185.726  1.00  0.00     0.262 C 
ATOM    912  N9   DG A  37      93.969  91.344 186.319  1.00  0.00    -0.293 N 
ATOM    913  C4   DG A  37      93.682  92.664 186.066  1.00  0.00     0.187 A 
ATOM    914  N3   DG A  37      92.731  93.120 185.225  1.00  0.00    -0.044 NA
ATOM    915  C2   DG A  37      92.696  94.439 185.193  1.00  0.00     0.703 A 
ATOM    916  N2   DG A  37      91.808  95.055 184.412  1.00  0.00    -0.233 N 
ATOM    917  H21  DG A  37      91.172  94.503 183.857  1.00  0.00     0.174 HD
ATOM    918  H22  DG A  37      91.780  96.065 184.374  1.00  0.00     0.174 HD
ATOM    919  N1   DG A  37      93.525  95.251 185.922  1.00  0.00    -0.153 N 
ATOM    920  H1   DG A  37      93.413  96.248 185.819  1.00  0.00     0.187 HD
ATOM    921  C6   DG A  37      94.511  94.807 186.795  1.00  0.00     0.292 A 
ATOM    922  O6   DG A  37      95.206  95.628 187.405  1.00  0.00    -0.265 OA
ATOM    923  C5   DG A  37      94.563  93.386 186.843  1.00  0.00     0.173 A 
ATOM    924  N7   DG A  37      95.386  92.538 187.573  1.00  0.00    -0.234 NA
ATOM    925  C8   DG A  37      94.998  91.340 187.229  1.00  0.00     0.214 A 
ATOM    926  C2'  DG A  37      93.761  89.888 184.296  1.00  0.00     0.199 C 
ATOM    927  O2'  DG A  37      92.635  89.468 183.547  1.00  0.00    -0.388 OA
ATOM    928 'HO2  DG A  37      92.973  88.952 182.816  1.00  0.00     0.210 HD
ATOM    929  C3'  DG A  37      94.742  88.738 184.514  1.00  0.00     0.198 C 
ATOM    930  O3'  DG A  37      94.865  87.911 183.359  1.00  0.00    -0.279 OA
ATOM    931  P    DT A  38      96.278  87.801 182.597  1.00  0.00     0.408 P 
ATOM    932  OP1  DT A  38      96.007  87.244 181.246  1.00  0.00    -0.624 OA
ATOM    933  OP2  DT A  38      97.233  87.107 183.498  1.00  0.00    -0.624 OA
ATOM    934  O5'  DT A  38      96.757  89.314 182.441  1.00  0.00    -0.287 OA
ATOM    935  C5'  DT A  38      96.934  89.909 181.153  1.00  0.00     0.216 C 
ATOM    936  C4'  DT A  38      95.675  90.637 180.734  1.00  0.00     0.180 C 
ATOM    937  O4'  DT A  38      94.944  91.025 181.933  1.00  0.00    -0.353 OA
ATOM    938  C1'  DT A  38      94.605  92.397 181.868  1.00  0.00     0.264 C 
ATOM    939  N1   DT A  38      95.474  93.135 182.798  1.00  0.00    -0.280 N 
ATOM    940  C6   DT A  38      96.331  92.478 183.654  1.00  0.00     0.104 A 
ATOM    941  C2   DT A  38      95.404  94.519 182.789  1.00  0.00     0.331 A 
ATOM    942  O2   DT A  38      94.664  95.138 182.049  1.00  0.00    -0.246 OA
ATOM    943  N3   DT A  38      96.235  95.151 183.680  1.00  0.00    -0.275 N 
ATOM    944  H3   DT A  38      96.202  96.158 183.687  1.00  0.00     0.173 HD
ATOM    945  C4   DT A  38      97.108  94.558 184.562  1.00  0.00     0.250 A 
ATOM    946  O4   DT A  38      97.803  95.265 185.292  1.00  0.00    -0.268 OA
ATOM    947  C5   DT A  38      97.124  93.129 184.513  1.00  0.00     0.092 A 
ATOM    948  C2'  DT A  38      94.738  92.807 180.403  1.00  0.00     0.199 C 
ATOM    949  O2'  DT A  38      93.544  92.464 179.724  1.00  0.00    -0.388 OA
ATOM    950 'HO2  DT A  38      93.711  91.643 179.258  1.00  0.00     0.210 HD
ATOM    951  C3'  DT A  38      95.901  91.929 179.955  1.00  0.00     0.198 C 
ATOM    952  O3'  DT A  38      95.899  91.698 178.548  1.00  0.00    -0.279 OA
ATOM    953  P    DT A  39      95.774  92.941 177.533  1.00  0.00     0.408 P 
ATOM    954  OP1  DT A  39      94.363  92.993 177.070  1.00  0.00    -0.624 OA
ATOM    955  OP2  DT A  39      96.374  94.127 178.196  1.00  0.00    -0.624 OA
ATOM    956  O5'  DT A  39      96.676  92.523 176.286  1.00  0.00    -0.287 OA
ATOM    957  C5'  DT A  39      98.090  92.713 176.297  1.00  0.00     0.216 C 
ATOM    958  C4'  DT A  39      98.445  94.031 175.645  1.00  0.00     0.180 C 
ATOM    959  O4'  DT A  39      97.935  95.109 176.479  1.00  0.00    -0.353 OA
ATOM    960  C1'  DT A  39      98.932  96.098 176.658  1.00  0.00     0.264 C 
ATOM    961  N1   DT A  39      99.387  96.050 178.056  1.00  0.00    -0.280 N 
ATOM    962  C6   DT A  39      99.722  94.856 178.661  1.00  0.00     0.104 A 
ATOM    963  C2   DT A  39      99.465  97.243 178.748  1.00  0.00     0.331 A 
ATOM    964  O2   DT A  39      99.181  98.316 178.250  1.00  0.00    -0.246 OA
ATOM    965  N3   DT A  39      99.887  97.133 180.048  1.00  0.00    -0.275 N 
ATOM    966  H3   DT A  39      99.939  97.992 180.569  1.00  0.00     0.173 HD
ATOM    967  C4   DT A  39     100.233  95.977 180.713  1.00  0.00     0.250 A 
ATOM    968  O4   DT A  39     100.591  96.039 181.888  1.00  0.00    -0.268 OA
ATOM    969  C5   DT A  39     100.127  94.788 179.934  1.00  0.00     0.092 A 
ATOM    970  C2'  DT A  39     100.033  95.819 175.639  1.00  0.00     0.199 C 
ATOM    971  O2'  DT A  39      99.698  96.468 174.426  1.00  0.00    -0.388 OA
ATOM    972 'HO2  DT A  39      99.518  95.784 173.781  1.00  0.00     0.210 HD
ATOM    973  C3'  DT A  39      99.940  94.304 175.499  1.00  0.00     0.198 C 
ATOM    974  O3'  DT A  39     100.432  93.850 174.241  1.00  0.00    -0.279 OA
ATOM    975  P    DG A  40     102.002  93.972 173.908  1.00  0.00     0.408 P 
ATOM    976  OP1  DG A  40     102.745  93.562 175.122  1.00  0.00    -0.624 OA
ATOM    977  OP2  DG A  40     102.248  95.312 173.316  1.00  0.00    -0.624 OA
ATOM    978  O5'  DG A  40     102.243  92.868 172.784  1.00  0.00    -0.287 OA
ATOM    979  C5'  DG A  40     101.971  93.144 171.410  1.00  0.00     0.216 C 
ATOM    980  C4'  DG A  40     102.954  92.412 170.529  1.00  0.00     0.180 C 
ATOM    981  O4'  DG A  40     102.285  91.271 169.927  1.00  0.00    -0.353 OA
ATOM    982  C1'  DG A  40     102.696  91.130 168.579  1.00  0.00     0.262 C 
ATOM    983  N9   DG A  40     101.534  91.343 167.722  1.00  0.00    -0.293 N 
ATOM    984  C4   DG A  40     101.154  90.577 166.646  1.00  0.00     0.187 A 
ATOM    985  N3   DG A  40     101.795  89.481 166.187  1.00  0.00    -0.044 NA
ATOM    986  C2   DG A  40     101.187  88.958 165.137  1.00  0.00     0.703 A 
ATOM    987  N2   DG A  40     101.688  87.864 164.556  1.00  0.00    -0.233 N 
ATOM    988  H21  DG A  40     102.529  87.452 164.933  1.00  0.00     0.174 HD
ATOM    989  H22  DG A  40     101.236  87.458 163.751  1.00  0.00     0.174 HD
ATOM    990  N1   DG A  40     100.043  89.467 164.578  1.00  0.00    -0.153 N 
ATOM    991  H1   DG A  40      99.657  88.993 163.777  1.00  0.00     0.187 HD
ATOM    992  C6   DG A  40      99.365  90.592 165.032  1.00  0.00     0.292 A 
ATOM    993  O6   DG A  40      98.339  90.964 164.451  1.00  0.00    -0.265 OA
ATOM    994  C5   DG A  40     100.006  91.168 166.163  1.00  0.00     0.173 A 
ATOM    995  N7   DG A  40      99.669  92.284 166.918  1.00  0.00    -0.234 NA
ATOM    996  C8   DG A  40     100.602  92.347 167.828  1.00  0.00     0.214 A 
ATOM    997  C2'  DG A  40     103.830  92.127 168.337  1.00  0.00     0.199 C 
ATOM    998  O2'  DG A  40     105.062  91.504 168.651  1.00  0.00    -0.388 OA
ATOM    999 'HO2  DG A  40     105.429  91.981 169.397  1.00  0.00     0.210 HD
ATOM   1000  C3'  DG A  40     103.490  93.214 169.350  1.00  0.00     0.198 C 
ATOM   1001  O3'  DG A  40     104.629  93.987 169.722  1.00  0.00    -0.279 OA
ATOM   1002  P    DC A  41     104.758  95.515 169.234  1.00  0.00     0.408 P 
ATOM   1003  OP1  DC A  41     103.388  96.049 169.019  1.00  0.00    -0.624 OA
ATOM   1004  OP2  DC A  41     105.745  95.566 168.127  1.00  0.00    -0.624 OA
ATOM   1005  O5'  DC A  41     105.383  96.269 170.492  1.00  0.00    -0.287 OA
ATOM   1006  C5'  DC A  41     104.621  96.478 171.680  1.00  0.00     0.216 C 
ATOM   1007  C4'  DC A  41     105.445  97.228 172.702  1.00  0.00     0.180 C 
ATOM   1008  O4'  DC A  41     105.968  98.436 172.084  1.00  0.00    -0.353 OA
ATOM   1009  C1'  DC A  41     105.337  99.574 172.641  1.00  0.00     0.264 C 
ATOM   1010  N1   DC A  41     104.926 100.458 171.537  1.00  0.00    -0.278 N 
ATOM   1011  C6   DC A  41     104.504  99.936 170.346  1.00  0.00     0.102 A 
ATOM   1012  C2   DC A  41     104.973 101.843 171.724  1.00  0.00     0.352 A 
ATOM   1013  O2   DC A  41     105.357 102.289 172.815  1.00  0.00    -0.244 OA
ATOM   1014  N3   DC A  41     104.598 102.658 170.714  1.00  0.00    -0.177 NA
ATOM   1015  C4   DC A  41     104.189 102.140 169.556  1.00  0.00     0.128 A 
ATOM   1016  N4   DC A  41     103.829 102.983 168.590  1.00  0.00    -0.384 N 
ATOM   1017  H41  DC A  41     103.511 102.630 167.700  1.00  0.00     0.157 HD
ATOM   1018  H42  DC A  41     103.875 103.978 168.758  1.00  0.00     0.157 HD
ATOM   1019  C5   DC A  41     104.129 100.733 169.337  1.00  0.00     0.067 A 
ATOM   1020  C2'  DC A  41     104.175  99.081 173.502  1.00  0.00     0.199 C 
ATOM   1021  O2'  DC A  41     104.035  99.942 174.617  1.00  0.00    -0.388 OA
ATOM   1022 'HO2  DC A  41     104.919 100.163 174.915  1.00  0.00     0.210 HD
ATOM   1023  C3'  DC A  41     104.677  97.708 173.929  1.00  0.00     0.198 C 
ATOM   1024  O3'  DC A  41     105.515  97.773 175.081  1.00  0.00    -0.279 OA
ATOM   1025  P    DC A  42     105.730  96.464 175.991  1.00  0.00     0.408 P 
ATOM   1026  OP1  DC A  42     107.187  96.364 176.271  1.00  0.00    -0.624 OA
ATOM   1027  OP2  DC A  42     105.025  95.322 175.356  1.00  0.00    -0.624 OA
ATOM   1028  O5'  DC A  42     104.983  96.819 177.354  1.00  0.00    -0.287 OA
ATOM   1029  C5'  DC A  42     105.416  96.266 178.597  1.00  0.00     0.216 C 
ATOM   1030  C4'  DC A  42     104.222  95.867 179.434  1.00  0.00     0.180 C 
ATOM   1031  O4'  DC A  42     103.350  95.025 178.631  1.00  0.00    -0.353 OA
ATOM   1032  C1'  DC A  42     103.381  93.697 179.119  1.00  0.00     0.264 C 
ATOM   1033  N1   DC A  42     103.540  92.788 177.970  1.00  0.00    -0.278 N 
ATOM   1034  C6   DC A  42     102.487  92.036 177.528  1.00  0.00     0.102 A 
ATOM   1035  C2   DC A  42     104.785  92.702 177.331  1.00  0.00     0.352 A 
ATOM   1036  O2   DC A  42     105.726  93.391 177.750  1.00  0.00    -0.244 OA
ATOM   1037  N3   DC A  42     104.929  91.871 176.275  1.00  0.00    -0.177 NA
ATOM   1038  C4   DC A  42     103.894  91.146 175.850  1.00  0.00     0.128 A 
ATOM   1039  N4   DC A  42     104.084  90.350 174.800  1.00  0.00    -0.384 N 
ATOM   1040  H41  DC A  42     103.326  89.787 174.446  1.00  0.00     0.157 HD
ATOM   1041  H42  DC A  42     104.991  90.319 174.357  1.00  0.00     0.157 HD
ATOM   1042  C5   DC A  42     102.617  91.210 176.482  1.00  0.00     0.067 A 
ATOM   1043  C2'  DC A  42     104.507  93.611 180.149  1.00  0.00     0.199 C 
ATOM   1044  O2'  DC A  42     104.119  92.704 181.164  1.00  0.00    -0.388 OA
ATOM   1045 'HO2  DC A  42     103.822  93.233 181.904  1.00  0.00     0.210 HD
ATOM   1046  C3'  DC A  42     104.544  95.041 180.674  1.00  0.00     0.198 C 
ATOM   1047  O3'  DC A  42     103.590  95.261 181.713  1.00  0.00    -0.279 OA
ATOM   1048  P    DG A  43     103.887  96.357 182.855  1.00  0.00     0.408 P 
ATOM   1049  OP1  DG A  43     105.309  96.212 183.254  1.00  0.00    -0.624 OA
ATOM   1050  OP2  DG A  43     102.822  96.246 183.886  1.00  0.00    -0.624 OA
ATOM   1051  O5'  DG A  43     103.715  97.752 182.104  1.00  0.00    -0.287 OA
ATOM   1052  C5'  DG A  43     103.230  98.907 182.791  1.00  0.00     0.216 C 
ATOM   1053  C4'  DG A  43     104.340  99.547 183.594  1.00  0.00     0.180 C 
ATOM   1054  O4'  DG A  43     105.553  99.561 182.789  1.00  0.00    -0.353 OA
ATOM   1055  C1'  DG A  43     105.868 100.892 182.420  1.00  0.00     0.262 C 
ATOM   1056  N9   DG A  43     106.223 100.901 181.004  1.00  0.00    -0.293 N 
ATOM   1057  C4   DG A  43     105.476 100.397 179.965  1.00  0.00     0.187 A 
ATOM   1058  N3   DG A  43     104.269  99.802 180.068  1.00  0.00    -0.044 NA
ATOM   1059  C2   DG A  43     103.806  99.419 178.893  1.00  0.00     0.703 A 
ATOM   1060  N2   DG A  43     102.620  98.810 178.815  1.00  0.00    -0.233 N 
ATOM   1061  H21  DG A  43     102.093  98.650 179.661  1.00  0.00     0.174 HD
ATOM   1062  H22  DG A  43     102.260  98.507 177.922  1.00  0.00     0.174 HD
ATOM   1063  N1   DG A  43     104.470  99.604 177.707  1.00  0.00    -0.153 N 
ATOM   1064  H1   DG A  43     104.029  99.272 176.862  1.00  0.00     0.187 HD
ATOM   1065  C6   DG A  43     105.712 100.214 177.574  1.00  0.00     0.292 A 
ATOM   1066  O6   DG A  43     106.222 100.331 176.455  1.00  0.00    -0.265 OA
ATOM   1067  C5   DG A  43     106.225 100.630 178.830  1.00  0.00     0.173 A 
ATOM   1068  N7   DG A  43     107.416 101.271 179.148  1.00  0.00    -0.234 NA
ATOM   1069  C8   DG A  43     107.369 101.410 180.445  1.00  0.00     0.214 A 
ATOM   1070  C2'  DG A  43     104.657 101.754 182.769  1.00  0.00     0.199 C 
ATOM   1071  O2'  DG A  43     105.105 103.048 183.130  1.00  0.00    -0.388 OA
ATOM   1072 'HO2  DG A  43     104.395 103.463 183.626  1.00  0.00     0.210 HD
ATOM   1073  C3'  DG A  43     104.107 101.005 183.976  1.00  0.00     0.198 C 
ATOM   1074  O3'  DG A  43     104.792 101.341 185.182  1.00  0.00    -0.279 OA
ATOM   1075  P    DA A  44     104.050 102.213 186.311  1.00  0.00     0.408 P 
ATOM   1076  OP1  DA A  44     105.098 102.727 187.229  1.00  0.00    -0.624 OA
ATOM   1077  OP2  DA A  44     102.927 101.410 186.858  1.00  0.00    -0.624 OA
ATOM   1078  O5'  DA A  44     103.440 103.451 185.514  1.00  0.00    -0.287 OA
ATOM   1079  C5'  DA A  44     102.842 104.552 186.202  1.00  0.00     0.216 C 
ATOM   1080  C4'  DA A  44     101.921 105.316 185.275  1.00  0.00     0.180 C 
ATOM   1081  O4'  DA A  44     102.062 104.772 183.930  1.00  0.00    -0.353 OA
ATOM   1082  C1'  DA A  44     100.800 104.357 183.451  1.00  0.00     0.262 C 
ATOM   1083  N9   DA A  44     100.691 102.911 183.638  1.00  0.00    -0.294 N 
ATOM   1084  C4   DA A  44     100.395 101.974 182.676  1.00  0.00     0.167 A 
ATOM   1085  N3   DA A  44     100.142 102.189 181.373  1.00  0.00    -0.222 NA
ATOM   1086  C2   DA A  44      99.903 101.039 180.745  1.00  0.00     0.237 A 
ATOM   1087  N1   DA A  44      99.886  99.793 181.237  1.00  0.00    -0.222 NA
ATOM   1088  C6   DA A  44     100.139  99.614 182.552  1.00  0.00     0.155 A 
ATOM   1089  N6   DA A  44     100.114  98.378 183.047  1.00  0.00    -0.382 N 
ATOM   1090  H61  DA A  44     100.299  98.232 184.028  1.00  0.00     0.157 HD
ATOM   1091  H62  DA A  44      99.929  97.585 182.449  1.00  0.00     0.157 HD
ATOM   1092  C5   DA A  44     100.412 100.752 183.325  1.00  0.00     0.149 A 
ATOM   1093  N7   DA A  44     100.710 100.914 184.670  1.00  0.00    -0.236 NA
ATOM   1094  C8   DA A  44     100.864 102.208 184.804  1.00  0.00     0.214 A 
ATOM   1095  C2'  DA A  44      99.773 105.167 184.233  1.00  0.00     0.199 C 
ATOM   1096  O2'  DA A  44      99.680 106.460 183.666  1.00  0.00    -0.388 OA
ATOM   1097 'HO2  DA A  44      99.562 107.070 184.395  1.00  0.00     0.210 HD
ATOM   1098  C3'  DA A  44     100.432 105.214 185.607  1.00  0.00     0.198 C 
ATOM   1099  O3'  DA A  44      99.983 106.327 186.375  1.00  0.00    -0.279 OA
ATOM   1100  P    DA A  45      98.735 106.155 187.375  1.00  0.00     0.408 P 
ATOM   1101  OP1  DA A  45      98.330 107.516 187.813  1.00  0.00    -0.624 OA
ATOM   1102  OP2  DA A  45      99.092 105.135 188.393  1.00  0.00    -0.624 OA
ATOM   1103  O5'  DA A  45      97.575 105.560 186.457  1.00  0.00    -0.287 OA
ATOM   1104  C5'  DA A  45      96.897 106.378 185.504  1.00  0.00     0.216 C 
ATOM   1105  C4'  DA A  45      96.222 105.520 184.459  1.00  0.00     0.180 C 
ATOM   1106  O4'  DA A  45      97.134 104.476 184.027  1.00  0.00    -0.353 OA
ATOM   1107  C1'  DA A  45      96.395 103.327 183.647  1.00  0.00     0.262 C 
ATOM   1108  N9   DA A  45      96.913 102.178 184.391  1.00  0.00    -0.294 N 
ATOM   1109  C4   DA A  45      96.669 100.851 184.127  1.00  0.00     0.167 A 
ATOM   1110  N3   DA A  45      95.904 100.341 183.145  1.00  0.00    -0.222 NA
ATOM   1111  C2   DA A  45      95.902  99.008 183.192  1.00  0.00     0.237 A 
ATOM   1112  N1   DA A  45      96.531  98.189 184.047  1.00  0.00    -0.222 NA
ATOM   1113  C6   DA A  45      97.291  98.734 185.022  1.00  0.00     0.155 A 
ATOM   1114  N6   DA A  45      97.918  97.920 185.872  1.00  0.00    -0.382 N 
ATOM   1115  H61  DA A  45      98.491  98.304 186.608  1.00  0.00     0.157 HD
ATOM   1116  H62  DA A  45      97.826  96.917 185.777  1.00  0.00     0.157 HD
ATOM   1117  C5   DA A  45      97.375 100.139 185.079  1.00  0.00     0.149 A 
ATOM   1118  N7   DA A  45      98.049 101.000 185.934  1.00  0.00    -0.236 NA
ATOM   1119  C8   DA A  45      97.743 102.194 185.485  1.00  0.00     0.214 A 
ATOM   1120  C2'  DA A  45      94.913 103.618 183.904  1.00  0.00     0.199 C 
ATOM   1121  O2'  DA A  45      94.330 104.062 182.694  1.00  0.00    -0.388 OA
ATOM   1122 'HO2  DA A  45      93.925 104.912 182.874  1.00  0.00     0.210 HD
ATOM   1123  C3'  DA A  45      94.995 104.751 184.923  1.00  0.00     0.198 C 
ATOM   1124  O3'  DA A  45      93.830 105.574 184.917  1.00  0.00    -0.279 OA
ATOM   1125  P    DC A  46      92.564 105.176 185.825  1.00  0.00     0.408 P 
ATOM   1126  OP1  DC A  46      91.536 106.232 185.641  1.00  0.00    -0.624 OA
ATOM   1127  OP2  DC A  46      93.048 104.854 187.192  1.00  0.00    -0.624 OA
ATOM   1128  O5'  DC A  46      92.021 103.832 185.163  1.00  0.00    -0.287 OA
ATOM   1129  C5'  DC A  46      91.510 103.824 183.830  1.00  0.00     0.216 C 
ATOM   1130  C4'  DC A  46      90.925 102.469 183.506  1.00  0.00     0.180 C 
ATOM   1131  O4'  DC A  46      92.007 101.528 183.283  1.00  0.00    -0.353 OA
ATOM   1132  C1'  DC A  46      91.643 100.254 183.782  1.00  0.00     0.264 C 
ATOM   1133  N1   DC A  46      92.619  99.860 184.810  1.00  0.00    -0.278 N 
ATOM   1134  C6   DC A  46      93.274 100.802 185.554  1.00  0.00     0.102 A 
ATOM   1135  C2   DC A  46      92.870  98.502 185.015  1.00  0.00     0.352 A 
ATOM   1136  O2   DC A  46      92.261  97.670 184.329  1.00  0.00    -0.244 OA
ATOM   1137  N3   DC A  46      93.767  98.128 185.953  1.00  0.00    -0.177 NA
ATOM   1138  C4   DC A  46      94.405  99.055 186.670  1.00  0.00     0.128 A 
ATOM   1139  N4   DC A  46      95.284  98.639 187.581  1.00  0.00    -0.384 N 
ATOM   1140  H41  DC A  46      95.785  99.312 188.142  1.00  0.00     0.157 HD
ATOM   1141  H42  DC A  46      95.447  97.649 187.708  1.00  0.00     0.157 HD
ATOM   1142  C5   DC A  46      94.170 100.448 186.484  1.00  0.00     0.067 A 
ATOM   1143  C2'  DC A  46      90.207 100.348 184.303  1.00  0.00     0.199 C 
ATOM   1144  O2'  DC A  46      89.327  99.968 183.262  1.00  0.00    -0.388 OA
ATOM   1145 'HO2  DC A  46      88.600  99.492 183.667  1.00  0.00     0.210 HD
ATOM   1146  C3'  DC A  46      90.097 101.835 184.614  1.00  0.00     0.198 C 
ATOM   1147  O3'  DC A  46      88.750 102.300 184.591  1.00  0.00    -0.279 OA
ATOM   1148  P    DC A  47      87.841 102.186 185.912  1.00  0.00     0.408 P 
ATOM   1149  OP1  DC A  47      86.602 102.967 185.667  1.00  0.00    -0.624 OA
ATOM   1150  OP2  DC A  47      88.684 102.499 187.094  1.00  0.00    -0.624 OA
ATOM   1151  O5'  DC A  47      87.452 100.642 185.979  1.00  0.00    -0.287 OA
ATOM   1152  C5'  DC A  47      86.461 100.095 185.109  1.00  0.00     0.216 C 
ATOM   1153  C4'  DC A  47      86.325  98.608 185.341  1.00  0.00     0.180 C 
ATOM   1154  O4'  DC A  47      87.624  97.980 185.163  1.00  0.00    -0.353 OA
ATOM   1155  C1'  DC A  47      87.773  96.921 186.094  1.00  0.00     0.264 C 
ATOM   1156  N1   DC A  47      88.926  97.223 186.960  1.00  0.00    -0.278 N 
ATOM   1157  C6   DC A  47      89.300  98.515 187.202  1.00  0.00     0.102 A 
ATOM   1158  C2   DC A  47      89.637  96.164 187.533  1.00  0.00     0.352 A 
ATOM   1159  O2   DC A  47      89.276  95.001 187.299  1.00  0.00    -0.244 OA
ATOM   1160  N3   DC A  47      90.695  96.433 188.328  1.00  0.00    -0.177 NA
ATOM   1161  C4   DC A  47      91.053  97.697 188.557  1.00  0.00     0.128 A 
ATOM   1162  N4   DC A  47      92.105  97.912 189.345  1.00  0.00    -0.384 N 
ATOM   1163  H41  DC A  47      92.408  98.854 189.543  1.00  0.00     0.157 HD
ATOM   1164  H42  DC A  47      92.599  97.128 189.747  1.00  0.00     0.157 HD
ATOM   1165  C5   DC A  47      90.348  98.796 187.987  1.00  0.00     0.067 A 
ATOM   1166  C2'  DC A  47      86.456  96.783 186.856  1.00  0.00     0.199 C 
ATOM   1167  O2'  DC A  47      85.639  95.849 186.174  1.00  0.00    -0.388 OA
ATOM   1168 'HO2  DC A  47      84.794  95.837 186.625  1.00  0.00     0.210 HD
ATOM   1169  C3'  DC A  47      85.898  98.198 186.743  1.00  0.00     0.198 C 
ATOM   1170  O3'  DC A  47      84.482  98.241 186.895  1.00  0.00    -0.279 OA
ATOM   1171  P    DT A  48      83.841  98.633 188.318  1.00  0.00     0.408 P 
ATOM   1172  OP1  DT A  48      82.402  98.922 188.089  1.00  0.00    -0.624 OA
ATOM   1173  OP2  DT A  48      84.703  99.660 188.955  1.00  0.00    -0.624 OA
ATOM   1174  O5'  DT A  48      83.950  97.291 189.172  1.00  0.00    -0.287 OA
ATOM   1175  C5'  DT A  48      83.308  96.091 188.742  1.00  0.00     0.216 C 
ATOM   1176  C4'  DT A  48      83.996  94.887 189.343  1.00  0.00     0.180 C 
ATOM   1177  O4'  DT A  48      85.428  95.073 189.290  1.00  0.00    -0.353 OA
ATOM   1178  C1'  DT A  48      86.033  94.312 190.317  1.00  0.00     0.264 C 
ATOM   1179  N1   DT A  48      87.063  95.139 190.962  1.00  0.00    -0.280 N 
ATOM   1180  C6   DT A  48      87.072  96.508 190.819  1.00  0.00     0.104 A 
ATOM   1181  C2   DT A  48      88.024  94.496 191.721  1.00  0.00     0.331 A 
ATOM   1182  O2   DT A  48      88.053  93.287 191.869  1.00  0.00    -0.246 OA
ATOM   1183  N3   DT A  48      88.952  95.321 192.302  1.00  0.00    -0.275 N 
ATOM   1184  H3   DT A  48      89.661  94.875 192.865  1.00  0.00     0.173 HD
ATOM   1185  C4   DT A  48      89.021  96.691 192.202  1.00  0.00     0.250 A 
ATOM   1186  O4   DT A  48      89.925  97.293 192.781  1.00  0.00    -0.268 OA
ATOM   1187  C5   DT A  48      87.996  97.281 191.399  1.00  0.00     0.092 A 
ATOM   1188  C2'  DT A  48      84.936  93.838 191.278  1.00  0.00     0.199 C 
ATOM   1189  O2'  DT A  48      84.736  92.455 191.072  1.00  0.00    -0.388 OA
ATOM   1190 'HO2  DT A  48      83.936  92.354 190.550  1.00  0.00     0.210 HD
ATOM   1191  C3'  DT A  48      83.720  94.646 190.819  1.00  0.00     0.198 C 
ATOM   1192  O3'  DT A  48      82.496  93.936 190.995  1.00  0.00    -0.279 OA
ATOM   1193  P    DC A  49      81.754  93.956 192.423  1.00  0.00     0.408 P 
ATOM   1194  OP1  DC A  49      80.299  93.816 192.161  1.00  0.00    -0.624 OA
ATOM   1195  OP2  DC A  49      82.250  95.119 193.202  1.00  0.00    -0.624 OA
ATOM   1196  O5'  DC A  49      82.259  92.625 193.140  1.00  0.00    -0.287 OA
ATOM   1197  C5'  DC A  49      82.138  91.354 192.503  1.00  0.00     0.216 C 
ATOM   1198  C4'  DC A  49      82.851  90.297 193.313  1.00  0.00     0.180 C 
ATOM   1199  O4'  DC A  49      82.996  89.107 192.487  1.00  0.00    -0.353 OA
ATOM   1200  C1'  DC A  49      84.363  88.779 192.359  1.00  0.00     0.264 C 
ATOM   1201  N1   DC A  49      84.597  88.267 190.998  1.00  0.00    -0.278 N 
ATOM   1202  C6   DC A  49      85.147  87.031 190.803  1.00  0.00     0.102 A 
ATOM   1203  C2   DC A  49      84.247  89.064 189.901  1.00  0.00     0.352 A 
ATOM   1204  O2   DC A  49      83.742  90.177 190.100  1.00  0.00    -0.244 OA
ATOM   1205  N3   DC A  49      84.468  88.599 188.649  1.00  0.00    -0.177 NA
ATOM   1206  C4   DC A  49      85.009  87.394 188.472  1.00  0.00     0.128 A 
ATOM   1207  N4   DC A  49      85.207  86.980 187.221  1.00  0.00    -0.384 N 
ATOM   1208  H41  DC A  49      85.614  86.075 187.042  1.00  0.00     0.157 HD
ATOM   1209  H42  DC A  49      84.946  87.581 186.453  1.00  0.00     0.157 HD
ATOM   1210  C5   DC A  49      85.369  86.558 189.570  1.00  0.00     0.067 A 
ATOM   1211  C2'  DC A  49      85.151  90.043 192.694  1.00  0.00     0.199 C 
ATOM   1212  O2'  DC A  49      86.404  89.663 193.230  1.00  0.00    -0.388 OA
ATOM   1213 'HO2  DC A  49      86.405  89.944 194.146  1.00  0.00     0.210 HD
ATOM   1214  C3'  DC A  49      84.262  90.672 193.762  1.00  0.00     0.198 C 
ATOM   1215  O3'  DC A  49      84.544  90.167 195.066  1.00  0.00    -0.279 OA
ATOM   1216  P    DT A  50      84.139  91.030 196.363  1.00  0.00     0.408 P 
ATOM   1217  OP1  DT A  50      84.115  90.101 197.521  1.00  0.00    -0.624 OA
ATOM   1218  OP2  DT A  50      82.933  91.836 196.047  1.00  0.00    -0.624 OA
ATOM   1219  O5'  DT A  50      85.365  92.029 196.561  1.00  0.00    -0.287 OA
ATOM   1220  C5'  DT A  50      86.711  91.550 196.603  1.00  0.00     0.216 C 
ATOM   1221  C4'  DT A  50      87.402  92.041 197.857  1.00  0.00     0.180 C 
ATOM   1222  O4'  DT A  50      87.513  93.491 197.789  1.00  0.00    -0.353 OA
ATOM   1223  C1'  DT A  50      86.749  94.080 198.826  1.00  0.00     0.264 C 
ATOM   1224  N1   DT A  50      86.057  95.256 198.279  1.00  0.00    -0.280 N 
ATOM   1225  C6   DT A  50      85.353  95.183 197.100  1.00  0.00     0.104 A 
ATOM   1226  C2   DT A  50      86.139  96.440 198.991  1.00  0.00     0.331 A 
ATOM   1227  O2   DT A  50      86.754  96.543 200.037  1.00  0.00    -0.246 OA
ATOM   1228  N3   DT A  50      85.473  97.499 198.430  1.00  0.00    -0.275 N 
ATOM   1229  H3   DT A  50      85.512  98.375 198.929  1.00  0.00     0.173 HD
ATOM   1230  C4   DT A  50      84.751  97.498 197.258  1.00  0.00     0.250 A 
ATOM   1231  O4   DT A  50      84.211  98.537 196.880  1.00  0.00    -0.268 OA
ATOM   1232  C5   DT A  50      84.715  96.238 196.582  1.00  0.00     0.092 A 
ATOM   1233  C2'  DT A  50      85.813  92.997 199.355  1.00  0.00     0.199 C 
ATOM   1234  O2'  DT A  50      85.565  93.242 200.727  1.00  0.00    -0.388 OA
ATOM   1235 'HO2  DT A  50      86.079  92.599 201.217  1.00  0.00     0.210 HD
ATOM   1236  C3'  DT A  50      86.669  91.752 199.164  1.00  0.00     0.198 C 
ATOM   1237  O3'  DT A  50      87.581  91.560 200.242  1.00  0.00    -0.279 OA
ATOM   1238  P    DT A  51      88.186  90.097 200.529  1.00  0.00     0.408 P 
ATOM   1239  OP1  DT A  51      88.263  89.378 199.232  1.00  0.00    -0.624 OA
ATOM   1240  OP2  DT A  51      87.428  89.498 201.657  1.00  0.00    -0.624 OA
ATOM   1241  O5'  DT A  51      89.673  90.391 201.019  1.00  0.00    -0.287 OA
ATOM   1242  C5'  DT A  51      90.383  89.453 201.825  1.00  0.00     0.216 C 
ATOM   1243  C4'  DT A  51      91.446  90.161 202.630  1.00  0.00     0.180 C 
ATOM   1244  O4'  DT A  51      92.440  90.705 201.715  1.00  0.00    -0.353 OA
ATOM   1245  C1'  DT A  51      92.782  92.022 202.107  1.00  0.00     0.264 C 
ATOM   1246  N1   DT A  51      92.249  92.961 201.110  1.00  0.00    -0.280 N 
ATOM   1247  C6   DT A  51      91.532  92.518 200.021  1.00  0.00     0.104 A 
ATOM   1248  C2   DT A  51      92.491  94.310 201.301  1.00  0.00     0.331 A 
ATOM   1249  O2   DT A  51      93.113  94.744 202.253  1.00  0.00    -0.246 OA
ATOM   1250  N3   DT A  51      91.975  95.134 200.336  1.00  0.00    -0.275 N 
ATOM   1251  H3   DT A  51      92.142  96.121 200.461  1.00  0.00     0.173 HD
ATOM   1252  C4   DT A  51      91.252  94.761 199.227  1.00  0.00     0.250 A 
ATOM   1253  O4   DT A  51      90.872  95.624 198.437  1.00  0.00    -0.268 OA
ATOM   1254  C5   DT A  51      91.038  93.354 199.102  1.00  0.00     0.092 A 
ATOM   1255  C2'  DT A  51      92.211  92.229 203.507  1.00  0.00     0.199 C 
ATOM   1256  O2'  DT A  51      93.135  91.733 204.457  1.00  0.00    -0.388 OA
ATOM   1257 'HO2  DT A  51      93.079  92.308 205.220  1.00  0.00     0.210 HD
ATOM   1258  C3'  DT A  51      90.962  91.360 203.436  1.00  0.00     0.198 C 
ATOM   1259  O3'  DT A  51      90.487  90.975 204.722  1.00  0.00    -0.279 OA
ATOM   1260  P    DC A  52      89.307  91.816 205.422  1.00  0.00     0.408 P 
ATOM   1261  OP1  DC A  52      88.787  91.001 206.550  1.00  0.00    -0.624 OA
ATOM   1262  OP2  DC A  52      88.372  92.291 204.369  1.00  0.00    -0.624 OA
ATOM   1263  O5'  DC A  52      90.047  93.090 206.030  1.00  0.00    -0.287 OA
ATOM   1264  C5'  DC A  52      90.945  92.962 207.131  1.00  0.00     0.216 C 
ATOM   1265  C4'  DC A  52      91.634  94.282 207.400  1.00  0.00     0.180 C 
ATOM   1266  O4'  DC A  52      92.379  94.679 206.213  1.00  0.00    -0.353 OA
ATOM   1267  C1'  DC A  52      92.196  96.065 205.974  1.00  0.00     0.264 C 
ATOM   1268  N1   DC A  52      91.381  96.222 204.756  1.00  0.00    -0.278 N 
ATOM   1269  C6   DC A  52      90.651  95.176 204.265  1.00  0.00     0.102 A 
ATOM   1270  C2   DC A  52      91.364  97.460 204.103  1.00  0.00     0.352 A 
ATOM   1271  O2   DC A  52      92.029  98.396 204.570  1.00  0.00    -0.244 OA
ATOM   1272  N3   DC A  52      90.624  97.604 202.981  1.00  0.00    -0.177 NA
ATOM   1273  C4   DC A  52      89.923  96.572 202.507  1.00  0.00     0.128 A 
ATOM   1274  N4   DC A  52      89.213  96.758 201.395  1.00  0.00    -0.384 N 
ATOM   1275  H41  DC A  52      88.669  96.004 201.002  1.00  0.00     0.157 HD
ATOM   1276  H42  DC A  52      89.214  97.660 200.941  1.00  0.00     0.157 HD
ATOM   1277  C5   DC A  52      89.918  95.304 203.154  1.00  0.00     0.067 A 
ATOM   1278  C2'  DC A  52      91.550  96.644 207.229  1.00  0.00     0.199 C 
ATOM   1279  O2'  DC A  52      92.568  96.945 208.168  1.00  0.00    -0.388 OA
ATOM   1280 'HO2  DC A  52      92.775  96.135 208.637  1.00  0.00     0.210 HD
ATOM   1281  C3'  DC A  52      90.709  95.459 207.683  1.00  0.00     0.198 C 
ATOM   1282  O3'  DC A  52      90.355  95.530 209.063  1.00  0.00    -0.279 OA
ATOM   1283  P    DC A  53      88.875  96.002 209.485  1.00  0.00     0.408 P 
ATOM   1284  OP1  DC A  53      88.723  95.739 210.938  1.00  0.00    -0.624 OA
ATOM   1285  OP2  DC A  53      87.901  95.419 208.526  1.00  0.00    -0.624 OA
ATOM   1286  O5'  DC A  53      88.896  97.581 209.266  1.00  0.00    -0.287 OA
ATOM   1287  C5'  DC A  53      89.816  98.409 209.977  1.00  0.00     0.216 C 
ATOM   1288  C4'  DC A  53      89.830  99.799 209.386  1.00  0.00     0.180 C 
ATOM   1289  O4'  DC A  53      90.377  99.731 208.039  1.00  0.00    -0.353 OA
ATOM   1290  C1'  DC A  53      89.663 100.610 207.187  1.00  0.00     0.264 C 
ATOM   1291  N1   DC A  53      88.975  99.811 206.159  1.00  0.00    -0.278 N 
ATOM   1292  C6   DC A  53      88.757  98.473 206.338  1.00  0.00     0.102 A 
ATOM   1293  C2   DC A  53      88.549 100.444 204.991  1.00  0.00     0.352 A 
ATOM   1294  O2   DC A  53      88.753 101.659 204.855  1.00  0.00    -0.244 OA
ATOM   1295  N3   DC A  53      87.924  99.720 204.037  1.00  0.00    -0.177 NA
ATOM   1296  C4   DC A  53      87.722  98.415 204.216  1.00  0.00     0.128 A 
ATOM   1297  N4   DC A  53      87.105  97.743 203.244  1.00  0.00    -0.384 N 
ATOM   1298  H41  DC A  53      86.930  96.752 203.334  1.00  0.00     0.157 HD
ATOM   1299  H42  DC A  53      86.816  98.230 202.408  1.00  0.00     0.157 HD
ATOM   1300  C5   DC A  53      88.143  97.742 205.399  1.00  0.00     0.067 A 
ATOM   1301  C2'  DC A  53      88.712 101.424 208.064  1.00  0.00     0.199 C 
ATOM   1302  O2'  DC A  53      89.387 102.585 208.512  1.00  0.00    -0.388 OA
ATOM   1303 'HO2  DC A  53      89.309 102.600 209.467  1.00  0.00     0.210 HD
ATOM   1304  C3'  DC A  53      88.464 100.452 209.210  1.00  0.00     0.198 C 
ATOM   1305  O3'  DC A  53      88.036 101.111 210.400  1.00  0.00    -0.279 OA
ATOM   1306  P    DC A  54      86.467 101.359 210.655  1.00  0.00     0.408 P 
ATOM   1307  OP1  DC A  54      86.303 101.710 212.088  1.00  0.00    -0.624 OA
ATOM   1308  OP2  DC A  54      85.707 100.217 210.087  1.00  0.00    -0.624 OA
ATOM   1309  O5'  DC A  54      86.134 102.653 209.784  1.00  0.00    -0.287 OA
ATOM   1310  C5'  DC A  54      86.711 103.919 210.096  1.00  0.00     0.216 C 
ATOM   1311  C4'  DC A  54      86.158 104.985 209.178  1.00  0.00     0.180 C 
ATOM   1312  O4'  DC A  54      86.662 104.750 207.832  1.00  0.00    -0.353 OA
ATOM   1313  C1'  DC A  54      85.620 104.940 206.891  1.00  0.00     0.264 C 
ATOM   1314  N1   DC A  54      85.289 103.636 206.293  1.00  0.00    -0.278 N 
ATOM   1315  C6   DC A  54      85.600 102.471 206.940  1.00  0.00     0.102 A 
ATOM   1316  C2   DC A  54      84.654 103.603 205.050  1.00  0.00     0.352 A 
ATOM   1317  O2   DC A  54      84.374 104.671 204.489  1.00  0.00    -0.244 OA
ATOM   1318  N3   DC A  54      84.358 102.408 204.491  1.00  0.00    -0.177 NA
ATOM   1319  C4   DC A  54      84.673 101.278 205.126  1.00  0.00     0.128 A 
ATOM   1320  N4   DC A  54      84.367 100.125 204.533  1.00  0.00    -0.384 N 
ATOM   1321  H41  DC A  54      84.587  99.246 204.978  1.00  0.00     0.157 HD
ATOM   1322  H42  DC A  54      83.915 100.134 203.629  1.00  0.00     0.157 HD
ATOM   1323  C5   DC A  54      85.315 101.281 206.397  1.00  0.00     0.067 A 
ATOM   1324  C2'  DC A  54      84.458 105.592 207.637  1.00  0.00     0.199 C 
ATOM   1325  O2'  DC A  54      84.652 106.993 207.645  1.00  0.00    -0.388 OA
ATOM   1326 'HO2  DC A  54      84.557 107.281 208.554  1.00  0.00     0.210 HD
ATOM   1327  C3'  DC A  54      84.642 105.000 209.027  1.00  0.00     0.198 C 
ATOM   1328  O3'  DC A  54      84.019 105.783 210.040  1.00  0.00    -0.279 OA
ATOM   1329  P    DC A  55      82.490 105.494 210.448  1.00  0.00     0.408 P 
ATOM   1330  OP1  DC A  55      82.167 106.363 211.606  1.00  0.00    -0.624 OA
ATOM   1331  OP2  DC A  55      82.301 104.025 210.557  1.00  0.00    -0.624 OA
ATOM   1332  O5'  DC A  55      81.652 106.006 209.192  1.00  0.00    -0.287 OA
ATOM   1333  C5'  DC A  55      81.672 107.380 208.806  1.00  0.00     0.216 C 
ATOM   1334  C4'  DC A  55      80.879 107.576 207.535  1.00  0.00     0.180 C 
ATOM   1335  O4'  DC A  55      81.556 106.890 206.446  1.00  0.00    -0.353 OA
ATOM   1336  C1'  DC A  55      80.598 106.296 205.586  1.00  0.00     0.264 C 
ATOM   1337  N1   DC A  55      80.794 104.836 205.612  1.00  0.00    -0.278 N 
ATOM   1338  C6   DC A  55      81.364 104.224 206.693  1.00  0.00     0.102 A 
ATOM   1339  C2   DC A  55      80.392 104.082 204.507  1.00  0.00     0.352 A 
ATOM   1340  O2   DC A  55      79.869 104.659 203.542  1.00  0.00    -0.244 OA
ATOM   1341  N3   DC A  55      80.578 102.744 204.516  1.00  0.00    -0.177 NA
ATOM   1342  C4   DC A  55      81.143 102.158 205.572  1.00  0.00     0.128 A 
ATOM   1343  N4   DC A  55      81.313 100.837 205.531  1.00  0.00    -0.384 N 
ATOM   1344  H41  DC A  55      81.736 100.351 206.307  1.00  0.00     0.157 HD
ATOM   1345  H42  DC A  55      81.015 100.323 204.713  1.00  0.00     0.157 HD
ATOM   1346  C5   DC A  55      81.559 102.900 206.714  1.00  0.00     0.067 A 
ATOM   1347  C2'  DC A  55      79.215 106.741 206.060  1.00  0.00     0.199 C 
ATOM   1348  O2'  DC A  55      78.873 107.942 205.393  1.00  0.00    -0.388 OA
ATOM   1349 'HO2  DC A  55      78.935 108.646 206.038  1.00  0.00     0.210 HD
ATOM   1350  C3'  DC A  55      79.475 106.989 207.541  1.00  0.00     0.198 C 
ATOM   1351  O3'  DC A  55      78.533 107.892 208.114  1.00  0.00    -0.279 OA
ATOM   1352  P    DC A  56      77.169 107.326 208.753  1.00  0.00     0.408 P 
ATOM   1353  OP1  DC A  56      76.468 108.469 209.391  1.00  0.00    -0.624 OA
ATOM   1354  OP2  DC A  56      77.488 106.119 209.557  1.00  0.00    -0.624 OA
ATOM   1355  O5'  DC A  56      76.313 106.863 207.490  1.00  0.00    -0.287 OA
ATOM   1356  C5'  DC A  56      75.926 107.797 206.481  1.00  0.00     0.216 C 
ATOM   1357  C4'  DC A  56      75.058 107.117 205.448  1.00  0.00     0.180 C 
ATOM   1358  O4'  DC A  56      75.908 106.329 204.573  1.00  0.00    -0.353 OA
ATOM   1359  C1'  DC A  56      75.268 105.107 204.256  1.00  0.00     0.264 C 
ATOM   1360  N1   DC A  56      76.085 104.004 204.786  1.00  0.00    -0.278 N 
ATOM   1361  C6   DC A  56      76.786 104.147 205.952  1.00  0.00     0.102 A 
ATOM   1362  C2   DC A  56      76.134 102.802 204.078  1.00  0.00     0.352 A 
ATOM   1363  O2   DC A  56      75.491 102.698 203.023  1.00  0.00    -0.244 OA
ATOM   1364  N3   DC A  56      76.879 101.782 204.556  1.00  0.00    -0.177 NA
ATOM   1365  C4   DC A  56      77.560 101.930 205.692  1.00  0.00     0.128 A 
ATOM   1366  N4   DC A  56      78.282 100.897 206.124  1.00  0.00    -0.384 N 
ATOM   1367  H41  DC A  56      78.813 100.964 206.979  1.00  0.00     0.157 HD
ATOM   1368  H42  DC A  56      78.292 100.041 205.585  1.00  0.00     0.157 HD
ATOM   1369  C5   DC A  56      77.532 103.145 206.437  1.00  0.00     0.067 A 
ATOM   1370  C2'  DC A  56      73.855 105.158 204.838  1.00  0.00     0.198 C 
ATOM   1371  O2'  DC A  56      72.981 105.691 203.859  1.00  0.00    -0.388 OA
ATOM   1372 'HO2  DC A  56      72.343 106.236 204.321  1.00  0.00     0.210 HD
ATOM   1373  C3'  DC A  56      74.042 106.126 206.000  1.00  0.00     0.182 C 
ATOM   1374  O3'  DC A  56      72.818 106.761 206.383  1.00  0.00    -0.390 OA
ATOM   1375 'HO3  DC A  56      73.042 107.462 207.001  1.00  0.00     0.210 HD
ENDROOT
TORSDOF 434
ENDMDL
MODEL 4
REMARK VINA RESULT:     -19.5      7.064     22.798
REMARK  0 active torsions:
REMARK  status: ('A' for Active; 'I' for Inactive)
REMARK       I    between atoms: O5'_2  and  C5'_3 
REMARK       I    between atoms: C5'_3  and  C4'_4 
REMARK       I    between atoms: C1'_6  and  N9_7 
REMARK       I    between atoms: C2_10  and  N2_11 
REMARK       I    between atoms: C2'_21  and  O2'_22 
REMARK       I    between atoms: C3'_24  and  O3'_25 
REMARK       I    between atoms: O3'_25  and  P_26 
REMARK       I    between atoms: P_26  and  O5'_29 
REMARK       I    between atoms: O5'_29  and  C5'_30 
REMARK       I    between atoms: C5'_30  and  C4'_31 
REMARK       I    between atoms: C1'_33  and  N9_34 
REMARK       I    between atoms: C2_37  and  N2_38 
REMARK       I    between atoms: C2'_48  and  O2'_49 
REMARK       I    between atoms: C3'_51  and  O3'_52 
REMARK       I    between atoms: O3'_52  and  P_53 
REMARK       I    between atoms: P_53  and  O5'_56 
REMARK       I    between atoms: O5'_56  and  C5'_57 
REMARK       I    between atoms: C5'_57  and  C4'_58 
REMARK       I    between atoms: C1'_60  and  N9_61 
REMARK       I    between atoms: C2_64  and  N2_65 
REMARK       I    between atoms: C2'_75  and  O2'_76 
REMARK       I    between atoms: C3'_78  and  O3'_79 
REMARK       I    between atoms: O3'_79  and  P_80 
REMARK       I    between atoms: P_80  and  O5'_83 
REMARK       I    between atoms: O5'_83  and  C5'_84 
REMARK       I    between atoms: C5'_84  and  C4'_85 
REMARK       I    between atoms: C1'_87  and  N9_88 
REMARK       I    between atoms: C2_91  and  N2_92 
REMARK       I    between atoms: C2'_102  and  O2'_103 
REMARK       I    between atoms: C3'_105  and  O3'_106 
REMARK       I    between atoms: O3'_106  and  P_107 
REMARK       I    between atoms: P_107  and  O5'_110 
REMARK       I    between atoms: O5'_110  and  C5'_111 
REMARK       I    between atoms: C5'_111  and  C4'_112 
REMARK       I    between atoms: C1'_114  and  N9_115 
REMARK       I    between atoms: C2_118  and  N2_119 
REMARK       I    between atoms: C2'_129  and  O2'_130 
REMARK       I    between atoms: C3'_132  and  O3'_133 
REMARK       I    between atoms: O3'_133  and  P_134 
REMARK       I    between atoms: P_134  and  O5'_137 
REMARK       I    between atoms: O5'_137  and  C5'_138 
REMARK       I    between atoms: C5'_138  and  C4'_139 
REMARK       I    between atoms: C1'_141  and  N9_142 
REMARK       I    between atoms: C6_147  and  N6_148 
REMARK       I    between atoms: C2'_154  and  O2'_155 
REMARK       I    between atoms: C3'_157  and  O3'_158 
REMARK       I    between atoms: O3'_158  and  P_159 
REMARK       I    between atoms: P_159  and  O5'_162 
REMARK       I    between atoms: O5'_162  and  C5'_163 
REMARK       I    between atoms: C5'_163  and  C4'_164 
REMARK       I    between atoms: C1'_166  and  N9_167 
REMARK       I    between atoms: C2_170  and  N2_171 
REMARK       I    between atoms: C2'_181  and  O2'_182 
REMARK       I    between atoms: C3'_184  and  O3'_185 
REMARK       I    between atoms: O3'_185  and  P_186 
REMARK       I    between atoms: P_186  and  O5'_189 
REMARK       I    between atoms: O5'_189  and  C5'_190 
REMARK       I    between atoms: C5'_190  and  C4'_191 
REMARK       I    between atoms: C1'_193  and  N1_194 
REMARK       I    between atoms: C2'_203  and  O2'_204 
REMARK       I    between atoms: C3'_206  and  O3'_207 
REMARK       I    between atoms: O3'_207  and  P_208 
REMARK       I    between atoms: P_208  and  O5'_211 
REMARK       I    between atoms: O5'_211  and  C5'_212 
REMARK       I    between atoms: C5'_212  and  C4'_213 
REMARK       I    between atoms: C1'_215  and  N9_216 
REMARK       I    between atoms: C2_219  and  N2_220 
REMARK       I    between atoms: C2'_230  and  O2'_231 
REMARK       I    between atoms: C3'_233  and  O3'_234 
REMARK       I    between atoms: O3'_234  and  P_235 
REMARK       I    between atoms: P_235  and  O5'_238 
REMARK       I    between atoms: O5'_238  and  C5'_239 
REMARK       I    between atoms: C5'_239  and  C4'_240 
REMARK       I    between atoms: C1'_242  and  N9_243 
REMARK       I    between atoms: C2_246  and  N2_247 
REMARK       I    between atoms: C2'_257  and  O2'_258 
REMARK       I    between atoms: C3'_260  and  O3'_261 
REMARK       I    between atoms: O3'_261  and  P_262 
REMARK       I    between atoms: P_262  and  O5'_265 
REMARK       I    between atoms: O5'_265  and  C5'_266 
REMARK       I    between atoms: C5'_266  and  C4'_267 
REMARK       I    between atoms: C1'_269  and  N1_270 
REMARK       I    between atoms: C2'_279  and  O2'_280 
REMARK       I    between atoms: C3'_282  and  O3'_283 
REMARK       I    between atoms: O3'_283  and  P_284 
REMARK       I    between atoms: P_284  and  O5'_287 
REMARK       I    between atoms: O5'_287  and  C5'_288 
REMARK       I    between atoms: C5'_288  and  C4'_289 
REMARK       I    between atoms: C1'_291  and  N9_292 
REMARK       I    between atoms: C2_295  and  N2_296 
REMARK       I    between atoms: C2'_306  and  O2'_307 
REMARK       I    between atoms: C3'_309  and  O3'_310 
REMARK       I    between atoms: O3'_310  and  P_311 
REMARK       I    between atoms: P_311  and  O5'_314 
REMARK       I    between atoms: O5'_314  and  C5'_315 
REMARK       I    between atoms: C5'_315  and  C4'_316 
REMARK       I    between atoms: C1'_318  and  N9_319 
REMARK       I    between atoms: C2_322  and  N2_323 
REMARK       I    between atoms: C2'_333  and  O2'_334 
REMARK       I    between atoms: C3'_336  and  O3'_337 
REMARK       I    between atoms: O3'_337  and  P_338 
REMARK       I    between atoms: P_338  and  O5'_341 
REMARK       I    between atoms: O5'_341  and  C5'_342 
REMARK       I    between atoms: C5'_342  and  C4'_343 
REMARK       I    between atoms: C1'_345  and  N9_346 
REMARK       I    between atoms: C6_351  and  N6_352 
REMARK       I    between atoms: C2'_358  and  O2'_359 
REMARK       I    between atoms: C3'_361  and  O3'_362 
REMARK       I    between atoms: O3'_362  and  P_363 
REMARK       I    between atoms: P_363  and  O5'_366 
REMARK       I    between atoms: O5'_366  and  C5'_367 
REMARK       I    between atoms: C5'_367  and  C4'_368 
REMARK       I    between atoms: C1'_370  and  N9_371 
REMARK       I    between atoms: C6_376  and  N6_377 
REMARK       I    between atoms: C2'_383  and  O2'_384 
REMARK       I    between atoms: C3'_386  and  O3'_387 
REMARK       I    between atoms: O3'_387  and  P_388 
REMARK       I    between atoms: P_388  and  O5'_391 
REMARK       I    between atoms: O5'_391  and  C5'_392 
REMARK       I    between atoms: C5'_392  and  C4'_393 
REMARK       I    between atoms: C1'_395  and  N1_396 
REMARK       I    between atoms: C2'_405  and  O2'_406 
REMARK       I    between atoms: C3'_408  and  O3'_409 
REMARK       I    between atoms: O3'_409  and  P_410 
REMARK       I    between atoms: P_410  and  O5'_413 
REMARK       I    between atoms: O5'_413  and  C5'_414 
REMARK       I    between atoms: C5'_414  and  C4'_415 
REMARK       I    between atoms: C1'_417  and  N9_418 
REMARK       I    between atoms: C2_421  and  N2_422 
REMARK       I    between atoms: C2'_432  and  O2'_433 
REMARK       I    between atoms: C3'_435  and  O3'_436 
REMARK       I    between atoms: O3'_436  and  P_437 
REMARK       I    between atoms: P_437  and  O5'_440 
REMARK       I    between atoms: O5'_440  and  C5'_441 
REMARK       I    between atoms: C5'_441  and  C4'_442 
REMARK       I    between atoms: C1'_444  and  N9_445 
REMARK       I    between atoms: C2_448  and  N2_449 
REMARK       I    between atoms: C2'_459  and  O2'_460 
REMARK       I    between atoms: C3'_462  and  O3'_463 
REMARK       I    between atoms: O3'_463  and  P_464 
REMARK       I    between atoms: P_464  and  O5'_467 
REMARK       I    between atoms: O5'_467  and  C5'_468 
REMARK       I    between atoms: C5'_468  and  C4'_469 
REMARK       I    between atoms: C1'_471  and  N1_472 
REMARK       I    between atoms: C2'_481  and  O2'_482 
REMARK       I    between atoms: C3'_484  and  O3'_485 
REMARK       I    between atoms: O3'_485  and  P_486 
REMARK       I    between atoms: P_486  and  O5'_489 
REMARK       I    between atoms: O5'_489  and  C5'_490 
REMARK       I    between atoms: C5'_490  and  C4'_491 
REMARK       I    between atoms: C1'_493  and  N9_494 
REMARK       I    between atoms: C6_499  and  N6_500 
REMARK       I    between atoms: C2'_506  and  O2'_507 
REMARK       I    between atoms: C3'_509  and  O3'_510 
REMARK       I    between atoms: O3'_510  and  P_511 
REMARK       I    between atoms: P_511  and  O5'_514 
REMARK       I    between atoms: O5'_514  and  C5'_515 
REMARK       I    between atoms: C5'_515  and  C4'_516 
REMARK       I    between atoms: C1'_518  and  N9_519 
REMARK       I    between atoms: C2_522  and  N2_523 
REMARK       I    between atoms: C2'_533  and  O2'_534 
REMARK       I    between atoms: C3'_536  and  O3'_537 
REMARK       I    between atoms: O3'_537  and  P_538 
REMARK       I    between atoms: P_538  and  O5'_541 
REMARK       I    between atoms: O5'_541  and  C5'_542 
REMARK       I    between atoms: C5'_542  and  C4'_543 
REMARK       I    between atoms: C1'_545  and  N9_546 
REMARK       I    between atoms: C6_551  and  N6_552 
REMARK       I    between atoms: C2'_558  and  O2'_559 
REMARK       I    between atoms: C3'_561  and  O3'_562 
REMARK       I    between atoms: O3'_562  and  P_563 
REMARK       I    between atoms: P_563  and  O5'_566 
REMARK       I    between atoms: O5'_566  and  C5'_567 
REMARK       I    between atoms: C5'_567  and  C4'_568 
REMARK       I    between atoms: C1'_570  and  N1_571 
REMARK       I    between atoms: C4_576  and  N4_577 
REMARK       I    between atoms: C2'_581  and  O2'_582 
REMARK       I    between atoms: C3'_584  and  O3'_585 
REMARK       I    between atoms: O3'_585  and  P_586 
REMARK       I    between atoms: P_586  and  O5'_589 
REMARK       I    between atoms: O5'_589  and  C5'_590 
REMARK       I    between atoms: C5'_590  and  C4'_591 
REMARK       I    between atoms: C1'_593  and  N9_594 
REMARK       I    between atoms: C6_599  and  N6_600 
REMARK       I    between atoms: C2'_606  and  O2'_607 
REMARK       I    between atoms: C3'_609  and  O3'_610 
REMARK       I    between atoms: O3'_610  and  P_611 
REMARK       I    between atoms: P_611  and  O5'_614 
REMARK       I    between atoms: O5'_614  and  C5'_615 
REMARK       I    between atoms: C5'_615  and  C4'_616 
REMARK       I    between atoms: C1'_618  and  N1_619 
REMARK       I    between atoms: C4_624  and  N4_625 
REMARK       I    between atoms: C2'_629  and  O2'_630 
REMARK       I    between atoms: C3'_632  and  O3'_633 
REMARK       I    between atoms: O3'_633  and  P_634 
REMARK       I    between atoms: P_634  and  O5'_637 
REMARK       I    between atoms: O5'_637  and  C5'_638 
REMARK       I    between atoms: C5'_638  and  C4'_639 
REMARK       I    between atoms: C1'_641  and  N9_642 
REMARK       I    between atoms: C2_645  and  N2_646 
REMARK       I    between atoms: C2'_656  and  O2'_657 
REMARK       I    between atoms: C3'_659  and  O3'_660 
REMARK       I    between atoms: O3'_660  and  P_661 
REMARK       I    between atoms: P_661  and  O5'_664 
REMARK       I    between atoms: O5'_664  and  C5'_665 
REMARK       I    between atoms: C5'_665  and  C4'_666 
REMARK       I    between atoms: C1'_668  and  N1_669 
REMARK       I    between atoms: C4_674  and  N4_675 
REMARK       I    between atoms: C2'_679  and  O2'_680 
REMARK       I    between atoms: C3'_682  and  O3'_683 
REMARK       I    between atoms: O3'_683  and  P_684 
REMARK       I    between atoms: P_684  and  O5'_687 
REMARK       I    between atoms: O5'_687  and  C5'_688 
REMARK       I    between atoms: C5'_688  and  C4'_689 
REMARK       I    between atoms: C1'_691  and  N1_692 
REMARK       I    between atoms: C4_697  and  N4_698 
REMARK       I    between atoms: C2'_702  and  O2'_703 
REMARK       I    between atoms: C3'_705  and  O3'_706 
REMARK       I    between atoms: O3'_706  and  P_707 
REMARK       I    between atoms: P_707  and  O5'_710 
REMARK       I    between atoms: O5'_710  and  C5'_711 
REMARK       I    between atoms: C5'_711  and  C4'_712 
REMARK       I    between atoms: C1'_714  and  N9_715 
REMARK       I    between atoms: C2_718  and  N2_719 
REMARK       I    between atoms: C2'_729  and  O2'_730 
REMARK       I    between atoms: C3'_732  and  O3'_733 
REMARK       I    between atoms: O3'_733  and  P_734 
REMARK       I    between atoms: P_734  and  O5'_737 
REMARK       I    between atoms: O5'_737  and  C5'_738 
REMARK       I    between atoms: C5'_738  and  C4'_739 
REMARK       I    between atoms: C1'_741  and  N9_742 
REMARK       I    between atoms: C2_745  and  N2_746 
REMARK       I    between atoms: C2'_756  and  O2'_757 
REMARK       I    between atoms: C3'_759  and  O3'_760 
REMARK       I    between atoms: O3'_760  and  P_761 
REMARK       I    between atoms: P_761  and  O5'_764 
REMARK       I    between atoms: O5'_764  and  C5'_765 
REMARK       I    between atoms: C5'_765  and  C4'_766 
REMARK       I    between atoms: C1'_768  and  N9_769 
REMARK       I    between atoms: C6_774  and  N6_775 
REMARK       I    between atoms: C2'_781  and  O2'_782 
REMARK       I    between atoms: C3'_784  and  O3'_785 
REMARK       I    between atoms: O3'_785  and  P_786 
REMARK       I    between atoms: P_786  and  O5'_789 
REMARK       I    between atoms: O5'_789  and  C5'_790 
REMARK       I    between atoms: C5'_790  and  C4'_791 
REMARK       I    between atoms: C1'_793  and  N1_794 
REMARK       I    between atoms: C2'_803  and  O2'_804 
REMARK       I    between atoms: C3'_806  and  O3'_807 
REMARK       I    between atoms: O3'_807  and  P_808 
REMARK       I    between atoms: P_808  and  O5'_811 
REMARK       I    between atoms: O5'_811  and  C5'_812 
REMARK       I    between atoms: C5'_812  and  C4'_813 
REMARK       I    between atoms: C1'_815  and  N1_816 
REMARK       I    between atoms: C2'_825  and  O2'_826 
REMARK       I    between atoms: C3'_828  and  O3'_829 
REMARK       I    between atoms: O3'_829  and  P_830 
REMARK       I    between atoms: P_830  and  O5'_833 
REMARK       I    between atoms: O5'_833  and  C5'_834 
REMARK       I    between atoms: C5'_834  and  C4'_835 
REMARK       I    between atoms: C1'_837  and  N1_838 
REMARK       I    between atoms: C2'_847  and  O2'_848 
REMARK       I    between atoms: C3'_850  and  O3'_851 
REMARK       I    between atoms: O3'_851  and  P_852 
REMARK       I    between atoms: P_852  and  O5'_855 
REMARK       I    between atoms: O5'_855  and  C5'_856 
REMARK       I    between atoms: C5'_856  and  C4'_857 
REMARK       I    between atoms: C1'_859  and  N9_860 
REMARK       I    between atoms: C6_865  and  N6_866 
REMARK       I    between atoms: C2'_872  and  O2'_873 
REMARK       I    between atoms: C3'_875  and  O3'_876 
REMARK       I    between atoms: O3'_876  and  P_877 
REMARK       I    between atoms: P_877  and  O5'_880 
REMARK       I    between atoms: O5'_880  and  C5'_881 
REMARK       I    between atoms: C5'_881  and  C4'_882 
REMARK       I    between atoms: C1'_884  and  N9_885 
REMARK       I    between atoms: C2_888  and  N2_889 
REMARK       I    between atoms: C2'_899  and  O2'_900 
REMARK       I    between atoms: C3'_902  and  O3'_903 
REMARK       I    between atoms: O3'_903  and  P_904 
REMARK       I    between atoms: P_904  and  O5'_907 
REMARK       I    between atoms: O5'_907  and  C5'_908 
REMARK       I    between atoms: C5'_908  and  C4'_909 
REMARK       I    between atoms: C1'_911  and  N9_912 
REMARK       I    between atoms: C2_915  and  N2_916 
REMARK       I    between atoms: C2'_926  and  O2'_927 
REMARK       I    between atoms: C3'_929  and  O3'_930 
REMARK       I    between atoms: O3'_930  and  P_931 
REMARK       I    between atoms: P_931  and  O5'_934 
REMARK       I    between atoms: O5'_934  and  C5'_935 
REMARK       I    between atoms: C5'_935  and  C4'_936 
REMARK       I    between atoms: C1'_938  and  N1_939 
REMARK       I    between atoms: C2'_948  and  O2'_949 
REMARK       I    between atoms: C3'_951  and  O3'_952 
REMARK       I    between atoms: O3'_952  and  P_953 
REMARK       I    between atoms: P_953  and  O5'_956 
REMARK       I    between atoms: O5'_956  and  C5'_957 
REMARK       I    between atoms: C5'_957  and  C4'_958 
REMARK       I    between atoms: C1'_960  and  N1_961 
REMARK       I    between atoms: C2'_970  and  O2'_971 
REMARK       I    between atoms: C3'_973  and  O3'_974 
REMARK       I    between atoms: O3'_974  and  P_975 
REMARK       I    between atoms: P_975  and  O5'_978 
REMARK       I    between atoms: O5'_978  and  C5'_979 
REMARK       I    between atoms: C5'_979  and  C4'_980 
REMARK       I    between atoms: C1'_982  and  N9_983 
REMARK       I    between atoms: C2_986  and  N2_987 
REMARK       I    between atoms: C2'_997  and  O2'_998 
REMARK       I    between atoms: C3'_1000  and  O3'_1001 
REMARK       I    between atoms: O3'_1001  and  P_1002 
REMARK       I    between atoms: P_1002  and  O5'_1005 
REMARK       I    between atoms: O5'_1005  and  C5'_1006 
REMARK       I    between atoms: C5'_1006  and  C4'_1007 
REMARK       I    between atoms: C1'_1009  and  N1_1010 
REMARK       I    between atoms: C4_1015  and  N4_1016 
REMARK       I    between atoms: C2'_1020  and  O2'_1021 
REMARK       I    between atoms: C3'_1023  and  O3'_1024 
REMARK       I    between atoms: O3'_1024  and  P_1025 
REMARK       I    between atoms: P_1025  and  O5'_1028 
REMARK       I    between atoms: O5'_1028  and  C5'_1029 
REMARK       I    between atoms: C5'_1029  and  C4'_1030 
REMARK       I    between atoms: C1'_1032  and  N1_1033 
REMARK       I    between atoms: C4_1038  and  N4_1039 
REMARK       I    between atoms: C2'_1043  and  O2'_1044 
REMARK       I    between atoms: C3'_1046  and  O3'_1047 
REMARK       I    between atoms: O3'_1047  and  P_1048 
REMARK       I    between atoms: P_1048  and  O5'_1051 
REMARK       I    between atoms: O5'_1051  and  C5'_1052 
REMARK       I    between atoms: C5'_1052  and  C4'_1053 
REMARK       I    between atoms: C1'_1055  and  N9_1056 
REMARK       I    between atoms: C2_1059  and  N2_1060 
REMARK       I    between atoms: C2'_1070  and  O2'_1071 
REMARK       I    between atoms: C3'_1073  and  O3'_1074 
REMARK       I    between atoms: O3'_1074  and  P_1075 
REMARK       I    between atoms: P_1075  and  O5'_1078 
REMARK       I    between atoms: O5'_1078  and  C5'_1079 
REMARK       I    between atoms: C5'_1079  and  C4'_1080 
REMARK       I    between atoms: C1'_1082  and  N9_1083 
REMARK       I    between atoms: C6_1088  and  N6_1089 
REMARK       I    between atoms: C2'_1095  and  O2'_1096 
REMARK       I    between atoms: C3'_1098  and  O3'_1099 
REMARK       I    between atoms: O3'_1099  and  P_1100 
REMARK       I    between atoms: P_1100  and  O5'_1103 
REMARK       I    between atoms: O5'_1103  and  C5'_1104 
REMARK       I    between atoms: C5'_1104  and  C4'_1105 
REMARK       I    between atoms: C1'_1107  and  N9_1108 
REMARK       I    between atoms: C6_1113  and  N6_1114 
REMARK       I    between atoms: C2'_1120  and  O2'_1121 
REMARK       I    between atoms: C3'_1123  and  O3'_1124 
REMARK       I    between atoms: O3'_1124  and  P_1125 
REMARK       I    between atoms: P_1125  and  O5'_1128 
REMARK       I    between atoms: O5'_1128  and  C5'_1129 
REMARK       I    between atoms: C5'_1129  and  C4'_1130 
REMARK       I    between atoms: C1'_1132  and  N1_1133 
REMARK       I    between atoms: C4_1138  and  N4_1139 
REMARK       I    between atoms: C2'_1143  and  O2'_1144 
REMARK       I    between atoms: C3'_1146  and  O3'_1147 
REMARK       I    between atoms: O3'_1147  and  P_1148 
REMARK       I    between atoms: P_1148  and  O5'_1151 
REMARK       I    between atoms: O5'_1151  and  C5'_1152 
REMARK       I    between atoms: C5'_1152  and  C4'_1153 
REMARK       I    between atoms: C1'_1155  and  N1_1156 
REMARK       I    between atoms: C4_1161  and  N4_1162 
REMARK       I    between atoms: C2'_1166  and  O2'_1167 
REMARK       I    between atoms: C3'_1169  and  O3'_1170 
REMARK       I    between atoms: O3'_1170  and  P_1171 
REMARK       I    between atoms: P_1171  and  O5'_1174 
REMARK       I    between atoms: O5'_1174  and  C5'_1175 
REMARK       I    between atoms: C5'_1175  and  C4'_1176 
REMARK       I    between atoms: C1'_1178  and  N1_1179 
REMARK       I    between atoms: C2'_1188  and  O2'_1189 
REMARK       I    between atoms: C3'_1191  and  O3'_1192 
REMARK       I    between atoms: O3'_1192  and  P_1193 
REMARK       I    between atoms: P_1193  and  O5'_1196 
REMARK       I    between atoms: O5'_1196  and  C5'_1197 
REMARK       I    between atoms: C5'_1197  and  C4'_1198 
REMARK       I    between atoms: C1'_1200  and  N1_1201 
REMARK       I    between atoms: C4_1206  and  N4_1207 
REMARK       I    between atoms: C2'_1211  and  O2'_1212 
REMARK       I    between atoms: C3'_1214  and  O3'_1215 
REMARK       I    between atoms: O3'_1215  and  P_1216 
REMARK       I    between atoms: P_1216  and  O5'_1219 
REMARK       I    between atoms: O5'_1219  and  C5'_1220 
REMARK       I    between atoms: C5'_1220  and  C4'_1221 
REMARK       I    between atoms: C1'_1223  and  N1_1224 
REMARK       I    between atoms: C2'_1233  and  O2'_1234 
REMARK       I    between atoms: C3'_1236  and  O3'_1237 
REMARK       I    between atoms: O3'_1237  and  P_1238 
REMARK       I    between atoms: P_1238  and  O5'_1241 
REMARK       I    between atoms: O5'_1241  and  C5'_1242 
REMARK       I    between atoms: C5'_1242  and  C4'_1243 
REMARK       I    between atoms: C1'_1245  and  N1_1246 
REMARK       I    between atoms: C2'_1255  and  O2'_1256 
REMARK       I    between atoms: C3'_1258  and  O3'_1259 
REMARK       I    between atoms: O3'_1259  and  P_1260 
REMARK       I    between atoms: P_1260  and  O5'_1263 
REMARK       I    between atoms: O5'_1263  and  C5'_1264 
REMARK       I    between atoms: C5'_1264  and  C4'_1265 
REMARK       I    between atoms: C1'_1267  and  N1_1268 
REMARK       I    between atoms: C4_1273  and  N4_1274 
REMARK       I    between atoms: C2'_1278  and  O2'_1279 
REMARK       I    between atoms: C3'_1281  and  O3'_1282 
REMARK       I    between atoms: O3'_1282  and  P_1283 
REMARK       I    between atoms: P_1283  and  O5'_1286 
REMARK       I    between atoms: O5'_1286  and  C5'_1287 
REMARK       I    between atoms: C5'_1287  and  C4'_1288 
REMARK       I    between atoms: C1'_1290  and  N1_1291 
REMARK       I    between atoms: C4_1296  and  N4_1297 
REMARK       I    between atoms: C2'_1301  and  O2'_1302 
REMARK       I    between atoms: C3'_1304  and  O3'_1305 
REMARK       I    between atoms: O3'_1305  and  P_1306 
REMARK       I    between atoms: P_1306  and  O5'_1309 
REMARK       I    between atoms: O5'_1309  and  C5'_1310 
REMARK       I    between atoms: C5'_1310  and  C4'_1311 
REMARK       I    between atoms: C1'_1313  and  N1_1314 
REMARK       I    between atoms: C4_1319  and  N4_1320 
REMARK       I    between atoms: C2'_1324  and  O2'_1325 
REMARK       I    between atoms: C3'_1327  and  O3'_1328 
REMARK       I    between atoms: O3'_1328  and  P_1329 
REMARK       I    between atoms: P_1329  and  O5'_1332 
REMARK       I    between atoms: O5'_1332  and  C5'_1333 
REMARK       I    between atoms: C5'_1333  and  C4'_1334 
REMARK       I    between atoms: C1'_1336  and  N1_1337 
REMARK       I    between atoms: C4_1342  and  N4_1343 
REMARK       I    between atoms: C2'_1347  and  O2'_1348 
REMARK       I    between atoms: C3'_1350  and  O3'_1351 
REMARK       I    between atoms: O3'_1351  and  P_1352 
REMARK       I    between atoms: P_1352  and  O5'_1355 
REMARK       I    between atoms: O5'_1355  and  C5'_1356 
REMARK       I    between atoms: C5'_1356  and  C4'_1357 
REMARK       I    between atoms: C1'_1359  and  N1_1360 
REMARK       I    between atoms: C4_1365  and  N4_1366 
REMARK       I    between atoms: C2'_1370  and  O2'_1371 
REMARK       I    between atoms: C3'_1373  and  O3'_1374 
ROOT
ATOM      1 'HO5  DG A   1      95.310 107.844 187.124  1.00  0.00     0.209 HD
ATOM      2  O5'  DG A   1      94.830 108.502 187.635  1.00  0.00    -0.398 OA
ATOM      3  C5'  DG A   1      94.017 109.241 186.719  1.00  0.00     0.198 C 
ATOM      4  C4'  DG A   1      94.216 108.754 185.302  1.00  0.00     0.180 C 
ATOM      5  O4'  DG A   1      95.547 109.141 184.858  1.00  0.00    -0.353 OA
ATOM      6  C1'  DG A   1      96.151 108.065 184.162  1.00  0.00     0.262 C 
ATOM      7  N9   DG A   1      97.265 107.569 184.965  1.00  0.00    -0.293 N 
ATOM      8  C4   DG A   1      98.248 106.704 184.551  1.00  0.00     0.187 A 
ATOM      9  N3   DG A   1      98.360 106.158 183.323  1.00  0.00    -0.044 NA
ATOM     10  C2   DG A   1      99.413 105.367 183.229  1.00  0.00     0.703 A 
ATOM     11  N2   DG A   1      99.674 104.743 182.077  1.00  0.00    -0.233 N 
ATOM     12  H21  DG A   1      99.061 104.883 181.288  1.00  0.00     0.174 HD
ATOM     13  H22  DG A   1     100.479 104.136 182.001  1.00  0.00     0.174 HD
ATOM     14  N1   DG A   1     100.288 105.129 184.257  1.00  0.00    -0.153 N 
ATOM     15  H1   DG A   1     101.060 104.508 184.078  1.00  0.00     0.187 HD
ATOM     16  C6   DG A   1     100.194 105.677 185.530  1.00  0.00     0.292 A 
ATOM     17  O6   DG A   1     101.041 105.394 186.385  1.00  0.00    -0.265 OA
ATOM     18  C5   DG A   1      99.068 106.530 185.647  1.00  0.00     0.173 A 
ATOM     19  N7   DG A   1      98.608 107.273 186.728  1.00  0.00    -0.234 NA
ATOM     20  C8   DG A   1      97.540 107.870 186.276  1.00  0.00     0.214 A 
ATOM     21  C2'  DG A   1      95.062 107.024 183.908  1.00  0.00     0.199 C 
ATOM     22  O2'  DG A   1      94.396 107.352 182.703  1.00  0.00    -0.388 OA
ATOM     23 'HO2  DG A   1      93.912 106.571 182.435  1.00  0.00     0.210 HD
ATOM     24  C3'  DG A   1      94.163 107.243 185.118  1.00  0.00     0.198 C 
ATOM     25  O3'  DG A   1      92.830 106.793 184.899  1.00  0.00    -0.279 OA
ATOM     26  P    DG A   2      92.416 105.290 185.299  1.00  0.00     0.408 P 
ATOM     27  OP1  DG A   2      91.002 105.099 184.890  1.00  0.00    -0.624 OA
ATOM     28  OP2  DG A   2      92.809 105.057 186.713  1.00  0.00    -0.624 OA
ATOM     29  O5'  DG A   2      93.332 104.378 184.367  1.00  0.00    -0.287 OA
ATOM     30  C5'  DG A   2      93.002 104.165 182.995  1.00  0.00     0.216 C 
ATOM     31  C4'  DG A   2      94.089 103.367 182.311  1.00  0.00     0.180 C 
ATOM     32  O4'  DG A   2      95.381 103.947 182.622  1.00  0.00    -0.353 OA
ATOM     33  C1'  DG A   2      96.366 102.929 182.633  1.00  0.00     0.262 C 
ATOM     34  N9   DG A   2      97.079 102.991 183.905  1.00  0.00    -0.293 N 
ATOM     35  C4   DG A   2      98.245 102.336 184.220  1.00  0.00     0.187 A 
ATOM     36  N3   DG A   2      98.937 101.511 183.407  1.00  0.00    -0.044 NA
ATOM     37  C2   DG A   2     100.021 101.035 183.994  1.00  0.00     0.703 A 
ATOM     38  N2   DG A   2     100.824 100.199 183.329  1.00  0.00    -0.233 N 
ATOM     39  H21  DG A   2     100.593  99.939 182.382  1.00  0.00     0.174 HD
ATOM     40  H22  DG A   2     101.652  99.828 183.773  1.00  0.00     0.174 HD
ATOM     41  N1   DG A   2     100.398 101.342 185.275  1.00  0.00    -0.153 N 
ATOM     42  H1   DG A   2     101.245 100.923 185.626  1.00  0.00     0.187 HD
ATOM     43  C6   DG A   2      99.704 102.188 186.132  1.00  0.00     0.292 A 
ATOM     44  O6   DG A   2     100.135 102.398 187.271  1.00  0.00    -0.265 OA
ATOM     45  C5   DG A   2      98.535 102.708 185.516  1.00  0.00     0.173 A 
ATOM     46  N7   DG A   2      97.570 103.578 186.007  1.00  0.00    -0.234 NA
ATOM     47  C8   DG A   2      96.728 103.713 185.019  1.00  0.00     0.214 A 
ATOM     48  C2'  DG A   2      95.665 101.589 182.385  1.00  0.00     0.199 C 
ATOM     49  O2'  DG A   2      95.771 101.275 181.010  1.00  0.00    -0.388 OA
ATOM     50 'HO2  DG A   2      94.902 100.992 180.725  1.00  0.00     0.210 HD
ATOM     51  C3'  DG A   2      94.223 101.920 182.761  1.00  0.00     0.198 C 
ATOM     52  O3'  DG A   2      93.281 101.081 182.097  1.00  0.00    -0.279 OA
ATOM     53  P    DG A   3      92.732  99.758 182.830  1.00  0.00     0.408 P 
ATOM     54  OP1  DG A   3      91.699  99.163 181.944  1.00  0.00    -0.624 OA
ATOM     55  OP2  DG A   3      92.385 100.103 184.232  1.00  0.00    -0.624 OA
ATOM     56  O5'  DG A   3      93.988  98.776 182.850  1.00  0.00    -0.287 OA
ATOM     57  C5'  DG A   3      94.632  98.382 181.639  1.00  0.00     0.216 C 
ATOM     58  C4'  DG A   3      95.886  97.599 181.947  1.00  0.00     0.180 C 
ATOM     59  O4'  DG A   3      96.814  98.450 182.656  1.00  0.00    -0.353 OA
ATOM     60  C1'  DG A   3      97.656  97.652 183.463  1.00  0.00     0.262 C 
ATOM     61  N9   DG A   3      97.760  98.283 184.775  1.00  0.00    -0.293 N 
ATOM     62  C4   DG A   3      98.787  98.130 185.676  1.00  0.00     0.187 A 
ATOM     63  N3   DG A   3      99.884  97.363 185.504  1.00  0.00    -0.044 NA
ATOM     64  C2   DG A   3     100.694  97.421 186.546  1.00  0.00     0.703 A 
ATOM     65  N2   DG A   3     101.833  96.724 186.541  1.00  0.00    -0.233 N 
ATOM     66  H21  DG A   3     102.065  96.157 185.740  1.00  0.00     0.174 HD
ATOM     67  H22  DG A   3     102.454  96.759 187.338  1.00  0.00     0.174 HD
ATOM     68  N1   DG A   3     100.449  98.169 187.667  1.00  0.00    -0.153 N 
ATOM     69  H1   DG A   3     101.132  98.140 188.407  1.00  0.00     0.187 HD
ATOM     70  C6   DG A   3      99.328  98.967 187.868  1.00  0.00     0.292 A 
ATOM     71  O6   DG A   3      99.208  99.602 188.921  1.00  0.00    -0.265 OA
ATOM     72  C5   DG A   3      98.448  98.916 186.756  1.00  0.00     0.173 A 
ATOM     73  N7   DG A   3      97.230  99.551 186.541  1.00  0.00    -0.234 NA
ATOM     74  C8   DG A   3      96.862  99.145 185.358  1.00  0.00     0.214 A 
ATOM     75  C2'  DG A   3      97.086  96.230 183.506  1.00  0.00     0.199 C 
ATOM     76  O2'  DG A   3      97.907  95.398 182.709  1.00  0.00    -0.388 OA
ATOM     77 'HO2  DG A   3      97.640  94.496 182.892  1.00  0.00     0.210 HD
ATOM     78  C3'  DG A   3      95.703  96.406 182.874  1.00  0.00     0.198 C 
ATOM     79  O3'  DG A   3      95.290  95.255 182.141  1.00  0.00    -0.279 OA
ATOM     80  P    DG A   4      94.401  94.122 182.857  1.00  0.00     0.408 P 
ATOM     81  OP1  DG A   4      93.987  93.160 181.804  1.00  0.00    -0.624 OA
ATOM     82  OP2  DG A   4      93.365  94.786 183.689  1.00  0.00    -0.624 OA
ATOM     83  O5'  DG A   4      95.429  93.378 183.821  1.00  0.00    -0.287 OA
ATOM     84  C5'  DG A   4      95.433  93.625 185.226  1.00  0.00     0.216 C 
ATOM     85  C4'  DG A   4      96.689  93.062 185.847  1.00  0.00     0.180 C 
ATOM     86  O4'  DG A   4      97.614  94.155 186.097  1.00  0.00    -0.353 OA
ATOM     87  C1'  DG A   4      98.257  93.963 187.345  1.00  0.00     0.262 C 
ATOM     88  N9   DG A   4      97.868  95.051 188.235  1.00  0.00    -0.293 N 
ATOM     89  C4   DG A   4      98.502  95.425 189.395  1.00  0.00     0.187 A 
ATOM     90  N3   DG A   4      99.604  94.847 189.916  1.00  0.00    -0.044 NA
ATOM     91  C2   DG A   4      99.980  95.429 191.041  1.00  0.00     0.703 A 
ATOM     92  N2   DG A   4     101.058  94.984 191.691  1.00  0.00    -0.233 N 
ATOM     93  H21  DG A   4     101.577  94.204 191.314  1.00  0.00     0.174 HD
ATOM     94  H22  DG A   4     101.349  95.421 192.554  1.00  0.00     0.174 HD
ATOM     95  N1   DG A   4      99.327  96.491 191.611  1.00  0.00    -0.153 N 
ATOM     96  H1   DG A   4      99.699  96.859 192.473  1.00  0.00     0.187 HD
ATOM     97  C6   DG A   4      98.193  97.103 191.093  1.00  0.00     0.292 A 
ATOM     98  O6   DG A   4      97.684  98.060 191.691  1.00  0.00    -0.265 OA
ATOM     99  C5   DG A   4      97.776  96.490 189.884  1.00  0.00     0.173 A 
ATOM    100  N7   DG A   4      96.705  96.781 189.048  1.00  0.00    -0.234 NA
ATOM    101  C8   DG A   4      96.801  95.904 188.087  1.00  0.00     0.214 A 
ATOM    102  C2'  DG A   4      97.864  92.578 187.858  1.00  0.00     0.199 C 
ATOM    103  O2'  DG A   4      98.798  91.632 187.372  1.00  0.00    -0.388 OA
ATOM    104 'HO2  DG A   4      98.290  90.891 187.042  1.00  0.00     0.210 HD
ATOM    105  C3'  DG A   4      96.503  92.391 187.201  1.00  0.00     0.198 C 
ATOM    106  O3'  DG A   4      96.154  91.017 187.056  1.00  0.00    -0.279 OA
ATOM    107  P    DG A   5      95.336  90.272 188.223  1.00  0.00     0.408 P 
ATOM    108  OP1  DG A   5      95.155  88.860 187.804  1.00  0.00    -0.624 OA
ATOM    109  OP2  DG A   5      94.145  91.094 188.561  1.00  0.00    -0.624 OA
ATOM    110  O5'  DG A   5      96.331  90.294 189.468  1.00  0.00    -0.287 OA
ATOM    111  C5'  DG A   5      97.557  89.565 189.441  1.00  0.00     0.216 C 
ATOM    112  C4'  DG A   5      98.177  89.541 190.820  1.00  0.00     0.180 C 
ATOM    113  O4'  DG A   5      98.740  90.850 191.101  1.00  0.00    -0.353 OA
ATOM    114  C1'  DG A   5      98.537  91.177 192.464  1.00  0.00     0.262 C 
ATOM    115  N9   DG A   5      97.739  92.397 192.527  1.00  0.00    -0.293 N 
ATOM    116  C4   DG A   5      97.846  93.398 193.464  1.00  0.00     0.187 A 
ATOM    117  N3   DG A   5      98.716  93.429 194.497  1.00  0.00    -0.044 NA
ATOM    118  C2   DG A   5      98.576  94.522 195.226  1.00  0.00     0.703 A 
ATOM    119  N2   DG A   5      99.365  94.716 196.287  1.00  0.00    -0.233 N 
ATOM    120  H21  DG A   5     100.062  94.022 196.518  1.00  0.00     0.174 HD
ATOM    121  H22  DG A   5      99.266  95.543 196.858  1.00  0.00     0.174 HD
ATOM    122  N1   DG A   5      97.657  95.504 194.969  1.00  0.00    -0.153 N 
ATOM    123  H1   DG A   5      97.630  96.297 195.593  1.00  0.00     0.187 HD
ATOM    124  C6   DG A   5      96.754  95.495 193.912  1.00  0.00     0.292 A 
ATOM    125  O6   DG A   5      95.966  96.437 193.771  1.00  0.00    -0.265 OA
ATOM    126  C5   DG A   5      96.891  94.329 193.117  1.00  0.00     0.173 A 
ATOM    127  N7   DG A   5      96.197  93.924 191.983  1.00  0.00    -0.234 NA
ATOM    128  C8   DG A   5      96.735  92.777 191.672  1.00  0.00     0.214 A 
ATOM    129  C2'  DG A   5      97.875  89.978 193.146  1.00  0.00     0.199 C 
ATOM    130  O2'  DG A   5      98.887  89.168 193.718  1.00  0.00    -0.388 OA
ATOM    131 'HO2  DG A   5      98.510  88.769 194.504  1.00  0.00     0.210 HD
ATOM    132  C3'  DG A   5      97.208  89.280 191.964  1.00  0.00     0.198 C 
ATOM    133  O3'  DG A   5      97.037  87.883 192.181  1.00  0.00    -0.279 OA
ATOM    134  P    DA A   6      95.891  87.363 193.183  1.00  0.00     0.408 P 
ATOM    135  OP1  DA A   6      95.734  85.905 192.955  1.00  0.00    -0.624 OA
ATOM    136  OP2  DA A   6      94.711  88.257 193.055  1.00  0.00    -0.624 OA
ATOM    137  O5'  DA A   6      96.524  87.568 194.630  1.00  0.00    -0.287 OA
ATOM    138  C5'  DA A   6      95.710  87.522 195.801  1.00  0.00     0.216 C 
ATOM    139  C4'  DA A   6      96.317  88.374 196.892  1.00  0.00     0.180 C 
ATOM    140  O4'  DA A   6      96.865  89.583 196.303  1.00  0.00    -0.353 OA
ATOM    141  C1'  DA A   6      96.647  90.682 197.169  1.00  0.00     0.262 C 
ATOM    142  N9   DA A   6      95.836  91.671 196.460  1.00  0.00    -0.294 N 
ATOM    143  C4   DA A   6      95.559  92.952 196.873  1.00  0.00     0.167 A 
ATOM    144  N3   DA A   6      95.971  93.552 198.003  1.00  0.00    -0.222 NA
ATOM    145  C2   DA A   6      95.501  94.796 198.073  1.00  0.00     0.237 A 
ATOM    146  N1   DA A   6      94.727  95.458 197.205  1.00  0.00    -0.222 NA
ATOM    147  C6   DA A   6      94.337  94.829 196.076  1.00  0.00     0.155 A 
ATOM    148  N6   DA A   6      93.575  95.492 195.206  1.00  0.00    -0.382 N 
ATOM    149  H61  DA A   6      93.277  95.038 194.355  1.00  0.00     0.157 HD
ATOM    150  H62  DA A   6      93.295  96.444 195.395  1.00  0.00     0.157 HD
ATOM    151  C5   DA A   6      94.764  93.503 195.886  1.00  0.00     0.149 A 
ATOM    152  N7   DA A   6      94.544  92.589 194.866  1.00  0.00    -0.236 NA
ATOM    153  C8   DA A   6      95.197  91.521 195.253  1.00  0.00     0.214 A 
ATOM    154  C2'  DA A   6      95.996  90.149 198.447  1.00  0.00     0.199 C 
ATOM    155  O2'  DA A   6      97.010  89.860 199.390  1.00  0.00    -0.388 OA
ATOM    156 'HO2  DA A   6      96.693  89.118 199.907  1.00  0.00     0.210 HD
ATOM    157  C3'  DA A   6      95.335  88.870 197.944  1.00  0.00     0.198 C 
ATOM    158  O3'  DA A   6      95.157  87.907 198.981  1.00  0.00    -0.279 OA
ATOM    159  P    DG A   7      93.766  87.106 199.106  1.00  0.00     0.408 P 
ATOM    160  OP1  DG A   7      94.102  85.703 199.462  1.00  0.00    -0.624 OA
ATOM    161  OP2  DG A   7      92.938  87.377 197.904  1.00  0.00    -0.624 OA
ATOM    162  O5'  DG A   7      93.051  87.775 200.363  1.00  0.00    -0.287 OA
ATOM    163  C5'  DG A   7      93.795  88.127 201.529  1.00  0.00     0.216 C 
ATOM    164  C4'  DG A   7      93.413  89.514 201.991  1.00  0.00     0.180 C 
ATOM    165  O4'  DG A   7      93.920  90.486 201.040  1.00  0.00    -0.353 OA
ATOM    166  C1'  DG A   7      93.032  91.587 200.969  1.00  0.00     0.262 C 
ATOM    167  N9   DG A   7      92.627  91.765 199.579  1.00  0.00    -0.293 N 
ATOM    168  C4   DG A   7      92.252  92.945 198.986  1.00  0.00     0.187 A 
ATOM    169  N3   DG A   7      92.191  94.149 199.590  1.00  0.00    -0.044 NA
ATOM    170  C2   DG A   7      91.793  95.096 198.762  1.00  0.00     0.703 A 
ATOM    171  N2   DG A   7      91.674  96.351 199.202  1.00  0.00    -0.233 N 
ATOM    172  H21  DG A   7      91.893  96.558 200.165  1.00  0.00     0.174 HD
ATOM    173  H22  DG A   7      91.358  97.084 198.585  1.00  0.00     0.174 HD
ATOM    174  N1   DG A   7      91.481  94.882 197.444  1.00  0.00    -0.153 N 
ATOM    175  H1   DG A   7      91.190  95.675 196.893  1.00  0.00     0.187 HD
ATOM    176  C6   DG A   7      91.533  93.652 196.801  1.00  0.00     0.292 A 
ATOM    177  O6   DG A   7      91.225  93.571 195.607  1.00  0.00    -0.265 OA
ATOM    178  C5   DG A   7      91.958  92.622 197.679  1.00  0.00     0.173 A 
ATOM    179  N7   DG A   7      92.147  91.265 197.452  1.00  0.00    -0.234 NA
ATOM    180  C8   DG A   7      92.542  90.800 198.606  1.00  0.00     0.214 A 
ATOM    181  C2'  DG A   7      91.864  91.316 201.919  1.00  0.00     0.199 C 
ATOM    182  O2'  DG A   7      92.141  91.947 203.154  1.00  0.00    -0.388 OA
ATOM    183 'HO2  DG A   7      91.304  92.218 203.536  1.00  0.00     0.210 HD
ATOM    184  C3'  DG A   7      91.919  89.797 202.050  1.00  0.00     0.198 C 
ATOM    185  O3'  DG A   7      91.349  89.336 203.273  1.00  0.00    -0.279 OA
ATOM    186  P    DT A   8      90.362  88.066 203.271  1.00  0.00     0.408 P 
ATOM    187  OP1  DT A   8      90.655  87.245 202.069  1.00  0.00    -0.624 OA
ATOM    188  OP2  DT A   8      88.982  88.562 203.499  1.00  0.00    -0.624 OA
ATOM    189  O5'  DT A   8      90.805  87.236 204.558  1.00  0.00    -0.287 OA
ATOM    190  C5'  DT A   8      91.755  86.175 204.461  1.00  0.00     0.216 C 
ATOM    191  C4'  DT A   8      92.608  86.119 205.708  1.00  0.00     0.180 C 
ATOM    192  O4'  DT A   8      93.067  87.463 206.023  1.00  0.00    -0.353 OA
ATOM    193  C1'  DT A   8      92.991  87.680 207.420  1.00  0.00     0.264 C 
ATOM    194  N1   DT A   8      91.981  88.717 207.674  1.00  0.00    -0.280 N 
ATOM    195  C6   DT A   8      91.164  89.182 206.668  1.00  0.00     0.104 A 
ATOM    196  C2   DT A   8      91.878  89.212 208.960  1.00  0.00     0.331 A 
ATOM    197  O2   DT A   8      92.581  88.824 209.875  1.00  0.00    -0.246 OA
ATOM    198  N3   DT A   8      90.920  90.177 209.136  1.00  0.00    -0.275 N 
ATOM    199  H3   DT A   8      90.807  90.544 210.069  1.00  0.00     0.173 HD
ATOM    200  C4   DT A   8      90.074  90.688 208.177  1.00  0.00     0.250 A 
ATOM    201  O4   DT A   8      89.270  91.566 208.486  1.00  0.00    -0.268 OA
ATOM    202  C5   DT A   8      90.240  90.123 206.874  1.00  0.00     0.092 A 
ATOM    203  C2'  DT A   8      92.675  86.337 208.076  1.00  0.00     0.199 C 
ATOM    204  O2'  DT A   8      93.890  85.666 208.348  1.00  0.00    -0.388 OA
ATOM    205 'HO2  DT A   8      93.710  84.732 208.235  1.00  0.00     0.210 HD
ATOM    206  C3'  DT A   8      91.897  85.641 206.968  1.00  0.00     0.198 C 
ATOM    207  O3'  DT A   8      91.946  84.222 207.094  1.00  0.00    -0.279 OA
ATOM    208  P    DG A   9      90.744  83.321 206.516  1.00  0.00     0.408 P 
ATOM    209  OP1  DG A   9      91.367  82.212 205.750  1.00  0.00    -0.624 OA
ATOM    210  OP2  DG A   9      89.748  84.201 205.851  1.00  0.00    -0.624 OA
ATOM    211  O5'  DG A   9      90.067  82.699 207.817  1.00  0.00    -0.287 OA
ATOM    212  C5'  DG A   9      89.607  83.533 208.881  1.00  0.00     0.216 C 
ATOM    213  C4'  DG A   9      90.495  83.366 210.092  1.00  0.00     0.180 C 
ATOM    214  O4'  DG A   9      91.384  84.515 210.174  1.00  0.00    -0.353 OA
ATOM    215  C1'  DG A   9      91.434  84.987 211.507  1.00  0.00     0.262 C 
ATOM    216  N9   DG A   9      90.738  86.269 211.571  1.00  0.00    -0.293 N 
ATOM    217  C4   DG A   9      90.609  87.074 212.676  1.00  0.00     0.187 A 
ATOM    218  N3   DG A   9      91.105  86.819 213.904  1.00  0.00    -0.044 NA
ATOM    219  C2   DG A   9      90.814  87.780 214.763  1.00  0.00     0.703 A 
ATOM    220  N2   DG A   9      91.227  87.686 216.029  1.00  0.00    -0.233 N 
ATOM    221  H21  DG A   9      91.759  86.879 216.317  1.00  0.00     0.174 HD
ATOM    222  H22  DG A   9      91.004  88.414 216.694  1.00  0.00     0.174 HD
ATOM    223  N1   DG A   9      90.095  88.902 214.443  1.00  0.00    -0.153 N 
ATOM    224  H1   DG A   9      89.931  89.577 215.175  1.00  0.00     0.187 HD
ATOM    225  C6   DG A   9      89.573  89.187 213.187  1.00  0.00     0.292 A 
ATOM    226  O6   DG A   9      88.937  90.232 213.008  1.00  0.00    -0.265 OA
ATOM    227  C5   DG A   9      89.876  88.163 212.252  1.00  0.00     0.173 A 
ATOM    228  N7   DG A   9      89.554  88.047 210.907  1.00  0.00    -0.234 NA
ATOM    229  C8   DG A   9      90.083  86.911 210.547  1.00  0.00     0.214 A 
ATOM    230  C2'  DG A   9      90.809  83.906 212.386  1.00  0.00     0.199 C 
ATOM    231  O2'  DG A   9      91.800  82.948 212.707  1.00  0.00    -0.388 OA
ATOM    232 'HO2  DG A   9      91.402  82.088 212.569  1.00  0.00     0.210 HD
ATOM    233  C3'  DG A   9      89.772  83.325 211.434  1.00  0.00     0.198 C 
ATOM    234  O3'  DG A   9      89.396  81.998 211.791  1.00  0.00    -0.279 OA
ATOM    235  P    DG A  10      88.121  81.756 212.742  1.00  0.00     0.408 P 
ATOM    236  OP1  DG A  10      88.097  80.311 213.085  1.00  0.00    -0.624 OA
ATOM    237  OP2  DG A  10      86.934  82.376 212.101  1.00  0.00    -0.624 OA
ATOM    238  O5'  DG A  10      88.459  82.577 214.067  1.00  0.00    -0.287 OA
ATOM    239  C5'  DG A  10      89.395  82.078 215.022  1.00  0.00     0.216 C 
ATOM    240  C4'  DG A  10      89.248  82.815 216.335  1.00  0.00     0.180 C 
ATOM    241  O4'  DG A  10      89.727  84.178 216.168  1.00  0.00    -0.353 OA
ATOM    242  C1'  DG A  10      88.923  85.062 216.931  1.00  0.00     0.262 C 
ATOM    243  N9   DG A  10      88.279  86.002 216.019  1.00  0.00    -0.293 N 
ATOM    244  C4   DG A  10      87.658  87.180 216.361  1.00  0.00     0.187 A 
ATOM    245  N3   DG A  10      87.531  87.675 217.611  1.00  0.00    -0.044 NA
ATOM    246  C2   DG A  10      86.888  88.827 217.621  1.00  0.00     0.703 A 
ATOM    247  N2   DG A  10      86.673  89.456 218.779  1.00  0.00    -0.233 N 
ATOM    248  H21  DG A  10      87.005  89.041 219.637  1.00  0.00     0.174 HD
ATOM    249  H22  DG A  10      86.180  90.338 218.795  1.00  0.00     0.174 HD
ATOM    250  N1   DG A  10      86.407  89.448 216.498  1.00  0.00    -0.153 N 
ATOM    251  H1   DG A  10      85.929  90.328 216.617  1.00  0.00     0.187 HD
ATOM    252  C6   DG A  10      86.524  88.960 215.202  1.00  0.00     0.292 A 
ATOM    253  O6   DG A  10      86.051  89.604 214.258  1.00  0.00    -0.265 OA
ATOM    254  C5   DG A  10      87.214  87.720 215.173  1.00  0.00     0.173 A 
ATOM    255  N7   DG A  10      87.545  86.897 214.104  1.00  0.00    -0.234 NA
ATOM    256  C8   DG A  10      88.172  85.893 214.654  1.00  0.00     0.214 A 
ATOM    257  C2'  DG A  10      87.935  84.213 217.732  1.00  0.00     0.199 C 
ATOM    258  O2'  DG A  10      88.519  83.894 218.981  1.00  0.00    -0.388 OA
ATOM    259 'HO2  DG A  10      88.329  82.971 219.147  1.00  0.00     0.210 HD
ATOM    260  C3'  DG A  10      87.825  82.978 216.847  1.00  0.00     0.198 C 
ATOM    261  O3'  DG A  10      87.390  81.830 217.573  1.00  0.00    -0.279 OA
ATOM    262  P    DT A  11      85.817  81.526 217.722  1.00  0.00     0.408 P 
ATOM    263  OP1  DT A  11      85.667  80.479 218.765  1.00  0.00    -0.624 OA
ATOM    264  OP2  DT A  11      85.256  81.296 216.367  1.00  0.00    -0.624 OA
ATOM    265  O5'  DT A  11      85.210  82.887 218.287  1.00  0.00    -0.287 OA
ATOM    266  C5'  DT A  11      85.386  83.260 219.653  1.00  0.00     0.216 C 
ATOM    267  C4'  DT A  11      84.697  84.578 219.928  1.00  0.00     0.180 C 
ATOM    268  O4'  DT A  11      85.313  85.613 219.119  1.00  0.00    -0.353 OA
ATOM    269  C1'  DT A  11      84.326  86.537 218.694  1.00  0.00     0.264 C 
ATOM    270  N1   DT A  11      84.296  86.543 217.224  1.00  0.00    -0.280 N 
ATOM    271  C6   DT A  11      84.737  85.459 216.496  1.00  0.00     0.104 A 
ATOM    272  C2   DT A  11      83.812  87.675 216.595  1.00  0.00     0.331 A 
ATOM    273  O2   DT A  11      83.415  88.652 217.205  1.00  0.00    -0.246 OA
ATOM    274  N3   DT A  11      83.809  87.621 215.224  1.00  0.00    -0.275 N 
ATOM    275  H3   DT A  11      83.462  88.432 214.737  1.00  0.00     0.173 HD
ATOM    276  C4   DT A  11      84.234  86.574 214.436  1.00  0.00     0.250 A 
ATOM    277  O4   DT A  11      84.170  86.675 213.212  1.00  0.00    -0.268 OA
ATOM    278  C5   DT A  11      84.722  85.442 215.161  1.00  0.00     0.092 A 
ATOM    279  C2'  DT A  11      82.998  86.127 219.330  1.00  0.00     0.199 C 
ATOM    280  O2'  DT A  11      82.858  86.819 220.556  1.00  0.00    -0.388 OA
ATOM    281 'HO2  DT A  11      82.226  86.330 221.082  1.00  0.00     0.210 HD
ATOM    282  C3'  DT A  11      83.223  84.636 219.555  1.00  0.00     0.198 C 
ATOM    283  O3'  DT A  11      82.397  84.111 220.592  1.00  0.00    -0.279 OA
ATOM    284  P    DG A  12      80.882  83.683 220.270  1.00  0.00     0.408 P 
ATOM    285  OP1  DG A  12      80.474  82.692 221.299  1.00  0.00    -0.624 OA
ATOM    286  OP2  DG A  12      80.783  83.327 218.830  1.00  0.00    -0.624 OA
ATOM    287  O5'  DG A  12      80.045  85.017 220.509  1.00  0.00    -0.287 OA
ATOM    288  C5'  DG A  12      79.948  85.601 221.808  1.00  0.00     0.216 C 
ATOM    289  C4'  DG A  12      79.356  86.988 221.713  1.00  0.00     0.180 C 
ATOM    290  O4'  DG A  12      80.144  87.779 220.786  1.00  0.00    -0.353 OA
ATOM    291  C1'  DG A  12      79.296  88.664 220.074  1.00  0.00     0.262 C 
ATOM    292  N9   DG A  12      79.421  88.378 218.649  1.00  0.00    -0.293 N 
ATOM    293  C4   DG A  12      79.209  89.261 217.619  1.00  0.00     0.187 A 
ATOM    294  N3   DG A  12      78.846  90.554 217.746  1.00  0.00    -0.044 NA
ATOM    295  C2   DG A  12      78.717  91.147 216.574  1.00  0.00     0.703 A 
ATOM    296  N2   DG A  12      78.366  92.433 216.519  1.00  0.00    -0.233 N 
ATOM    297  H21  DG A  12      78.201  92.941 217.376  1.00  0.00     0.174 HD
ATOM    298  H22  DG A  12      78.263  92.894 215.626  1.00  0.00     0.174 HD
ATOM    299  N1   DG A  12      78.925  90.525 215.371  1.00  0.00    -0.153 N 
ATOM    300  H1   DG A  12      78.799  91.071 214.532  1.00  0.00     0.187 HD
ATOM    301  C6   DG A  12      79.299  89.196 215.212  1.00  0.00     0.292 A 
ATOM    302  O6   DG A  12      79.460  88.735 214.074  1.00  0.00    -0.265 OA
ATOM    303  C5   DG A  12      79.443  88.542 216.465  1.00  0.00     0.173 A 
ATOM    304  N7   DG A  12      79.797  87.232 216.764  1.00  0.00    -0.234 NA
ATOM    305  C8   DG A  12      79.769  87.183 218.067  1.00  0.00     0.214 A 
ATOM    306  C2'  DG A  12      77.875  88.483 220.614  1.00  0.00     0.199 C 
ATOM    307  O2'  DG A  12      77.666  89.419 221.655  1.00  0.00    -0.388 OA
ATOM    308 'HO2  DG A  12      77.323  88.926 222.401  1.00  0.00     0.210 HD
ATOM    309  C3'  DG A  12      77.941  87.061 221.157  1.00  0.00     0.198 C 
ATOM    310  O3'  DG A  12      76.967  86.816 222.167  1.00  0.00    -0.279 OA
ATOM    311  P    DG A  13      75.503  86.288 221.757  1.00  0.00     0.408 P 
ATOM    312  OP1  DG A  13      74.756  86.048 223.018  1.00  0.00    -0.624 OA
ATOM    313  OP2  DG A  13      75.655  85.186 220.773  1.00  0.00    -0.624 OA
ATOM    314  O5'  DG A  13      74.837  87.533 221.019  1.00  0.00    -0.287 OA
ATOM    315  C5'  DG A  13      74.635  88.769 221.701  1.00  0.00     0.216 C 
ATOM    316  C4'  DG A  13      74.059  89.799 220.756  1.00  0.00     0.180 C 
ATOM    317  O4'  DG A  13      74.927  89.926 219.600  1.00  0.00    -0.353 OA
ATOM    318  C1'  DG A  13      74.151  90.239 218.457  1.00  0.00     0.262 C 
ATOM    319  N9   DG A  13      74.426  89.242 217.427  1.00  0.00    -0.293 N 
ATOM    320  C4   DG A  13      74.309  89.418 216.068  1.00  0.00     0.187 A 
ATOM    321  N3   DG A  13      73.917  90.550 215.448  1.00  0.00    -0.044 NA
ATOM    322  C2   DG A  13      73.902  90.413 214.135  1.00  0.00     0.703 A 
ATOM    323  N2   DG A  13      73.537  91.442 213.366  1.00  0.00    -0.233 N 
ATOM    324  H21  DG A  13      73.277  92.315 213.803  1.00  0.00     0.174 HD
ATOM    325  H22  DG A  13      73.521  91.352 212.362  1.00  0.00     0.174 HD
ATOM    326  N1   DG A  13      74.243  89.259 213.480  1.00  0.00    -0.153 N 
ATOM    327  H1   DG A  13      74.198  89.259 212.472  1.00  0.00     0.187 HD
ATOM    328  C6   DG A  13      74.651  88.081 214.095  1.00  0.00     0.292 A 
ATOM    329  O6   DG A  13      74.939  87.096 213.405  1.00  0.00    -0.265 OA
ATOM    330  C5   DG A  13      74.672  88.212 215.510  1.00  0.00     0.173 A 
ATOM    331  N7   DG A  13      75.011  87.294 216.495  1.00  0.00    -0.234 NA
ATOM    332  C8   DG A  13      74.850  87.949 217.612  1.00  0.00     0.214 A 
ATOM    333  C2'  DG A  13      72.682  90.290 218.883  1.00  0.00     0.199 C 
ATOM    334  O2'  DG A  13      72.337  91.635 219.162  1.00  0.00    -0.388 OA
ATOM    335 'HO2  DG A  13      71.857  91.627 219.989  1.00  0.00     0.210 HD
ATOM    336  C3'  DG A  13      72.704  89.455 220.159  1.00  0.00     0.198 C 
ATOM    337  O3'  DG A  13      71.643  89.790 221.050  1.00  0.00    -0.279 OA
ATOM    338  P    DA A  14      70.367  88.819 221.174  1.00  0.00     0.408 P 
ATOM    339  OP1  DA A  14      69.422  89.453 222.129  1.00  0.00    -0.624 OA
ATOM    340  OP2  DA A  14      70.850  87.438 221.427  1.00  0.00    -0.624 OA
ATOM    341  O5'  DA A  14      69.709  88.862 219.723  1.00  0.00    -0.287 OA
ATOM    342  C5'  DA A  14      69.222  90.085 219.171  1.00  0.00     0.216 C 
ATOM    343  C4'  DA A  14      68.724  89.859 217.763  1.00  0.00     0.180 C 
ATOM    344  O4'  DA A  14      69.868  89.739 216.876  1.00  0.00    -0.353 OA
ATOM    345  C1'  DA A  14      69.617  88.739 215.904  1.00  0.00     0.262 C 
ATOM    346  N9   DA A  14      70.603  87.673 216.077  1.00  0.00    -0.294 N 
ATOM    347  C4   DA A  14      71.143  86.894 215.082  1.00  0.00     0.167 A 
ATOM    348  N3   DA A  14      70.879  86.954 213.766  1.00  0.00    -0.222 NA
ATOM    349  C2   DA A  14      71.589  86.044 213.103  1.00  0.00     0.237 A 
ATOM    350  N1   DA A  14      72.468  85.151 213.573  1.00  0.00    -0.222 NA
ATOM    351  C6   DA A  14      72.711  85.118 214.900  1.00  0.00     0.155 A 
ATOM    352  N6   DA A  14      73.589  84.229 215.364  1.00  0.00    -0.382 N 
ATOM    353  H61  DA A  14      73.788  84.187 216.353  1.00  0.00     0.157 HD
ATOM    354  H62  DA A  14      74.049  83.601 214.724  1.00  0.00     0.157 HD
ATOM    355  C5   DA A  14      72.019  86.031 215.714  1.00  0.00     0.149 A 
ATOM    356  N7   DA A  14      72.032  86.259 217.083  1.00  0.00    -0.236 NA
ATOM    357  C8   DA A  14      71.179  87.240 217.247  1.00  0.00     0.214 A 
ATOM    358  C2'  DA A  14      68.171  88.273 216.078  1.00  0.00     0.199 C 
ATOM    359  O2'  DA A  14      67.337  89.064 215.253  1.00  0.00    -0.388 OA
ATOM    360 'HO2  DA A  14      66.542  89.242 215.756  1.00  0.00     0.210 HD
ATOM    361  C3'  DA A  14      67.935  88.574 217.554  1.00  0.00     0.198 C 
ATOM    362  O3'  DA A  14      66.552  88.760 217.855  1.00  0.00    -0.279 OA
ATOM    363  P    DA A  15      65.780  87.693 218.780  1.00  0.00     0.408 P 
ATOM    364  OP1  DA A  15      64.908  88.470 219.697  1.00  0.00    -0.624 OA
ATOM    365  OP2  DA A  15      66.766  86.735 219.346  1.00  0.00    -0.624 OA
ATOM    366  O5'  DA A  15      64.836  86.915 217.760  1.00  0.00    -0.287 OA
ATOM    367  C5'  DA A  15      64.828  85.489 217.694  1.00  0.00     0.216 C 
ATOM    368  C4'  DA A  15      65.043  85.032 216.272  1.00  0.00     0.180 C 
ATOM    369  O4'  DA A  15      66.411  85.339 215.884  1.00  0.00    -0.353 OA
ATOM    370  C1'  DA A  15      66.947  84.268 215.128  1.00  0.00     0.262 C 
ATOM    371  N9   DA A  15      68.051  83.678 215.887  1.00  0.00    -0.294 N 
ATOM    372  C4   DA A  15      68.638  82.457 215.652  1.00  0.00     0.167 A 
ATOM    373  N3   DA A  15      68.319  81.570 214.694  1.00  0.00    -0.222 NA
ATOM    374  C2   DA A  15      69.101  80.496 214.771  1.00  0.00     0.237 A 
ATOM    375  N1   DA A  15      70.090  80.228 215.632  1.00  0.00    -0.222 NA
ATOM    376  C6   DA A  15      70.384  81.141 216.582  1.00  0.00     0.155 A 
ATOM    377  N6   DA A  15      71.371  80.875 217.438  1.00  0.00    -0.382 N 
ATOM    378  H61  DA A  15      71.610  81.544 218.156  1.00  0.00     0.157 HD
ATOM    379  H62  DA A  15      71.875  80.003 217.363  1.00  0.00     0.157 HD
ATOM    380  C5   DA A  15      69.626  82.324 216.609  1.00  0.00     0.149 A 
ATOM    381  N7   DA A  15      69.665  83.441 217.433  1.00  0.00    -0.236 NA
ATOM    382  C8   DA A  15      68.713  84.211 216.964  1.00  0.00     0.214 A 
ATOM    383  C2'  DA A  15      65.806  83.293 214.841  1.00  0.00     0.199 C 
ATOM    384  O2'  DA A  15      65.173  83.681 213.636  1.00  0.00    -0.388 OA
ATOM    385 'HO2  DA A  15      64.230  83.670 213.804  1.00  0.00     0.210 HD
ATOM    386  C3'  DA A  15      64.901  83.533 216.045  1.00  0.00     0.198 C 
ATOM    387  O3'  DA A  15      63.545  83.168 215.794  1.00  0.00    -0.279 OA
ATOM    388  P    DT A  16      63.153  81.619 215.602  1.00  0.00     0.408 P 
ATOM    389  OP1  DT A  16      63.952  81.094 214.466  1.00  0.00    -0.624 OA
ATOM    390  OP2  DT A  16      61.671  81.531 215.556  1.00  0.00    -0.624 OA
ATOM    391  O5'  DT A  16      63.650  80.914 216.945  1.00  0.00    -0.287 OA
ATOM    392  C5'  DT A  16      64.993  80.449 217.087  1.00  0.00     0.216 C 
ATOM    393  C4'  DT A  16      65.155  79.101 216.428  1.00  0.00     0.180 C 
ATOM    394  O4'  DT A  16      66.561  78.933 216.087  1.00  0.00    -0.353 OA
ATOM    395  C1'  DT A  16      67.048  77.739 216.661  1.00  0.00     0.264 C 
ATOM    396  N1   DT A  16      67.787  78.079 217.887  1.00  0.00    -0.280 N 
ATOM    397  C6   DT A  16      68.066  79.389 218.209  1.00  0.00     0.104 A 
ATOM    398  C2   DT A  16      68.191  77.043 218.709  1.00  0.00     0.331 A 
ATOM    399  O2   DT A  16      67.966  75.873 218.463  1.00  0.00    -0.246 OA
ATOM    400  N3   DT A  16      68.871  77.428 219.837  1.00  0.00    -0.275 N 
ATOM    401  H3   DT A  16      69.170  76.690 220.453  1.00  0.00     0.173 HD
ATOM    402  C4   DT A  16      69.183  78.713 220.217  1.00  0.00     0.250 A 
ATOM    403  O4   DT A  16      69.805  78.899 221.262  1.00  0.00    -0.268 OA
ATOM    404  C5   DT A  16      68.733  79.727 219.316  1.00  0.00     0.092 A 
ATOM    405  C2'  DT A  16      65.823  76.857 216.883  1.00  0.00     0.199 C 
ATOM    406  O2'  DT A  16      65.474  76.254 215.652  1.00  0.00    -0.388 OA
ATOM    407 'HO2  DT A  16      64.696  75.719 215.811  1.00  0.00     0.210 HD
ATOM    408  C3'  DT A  16      64.794  77.899 217.299  1.00  0.00     0.198 C 
ATOM    409  O3'  DT A  16      63.459  77.458 217.058  1.00  0.00    -0.279 OA
ATOM    410  P    DG A  17      62.543  76.965 218.286  1.00  0.00     0.408 P 
ATOM    411  OP1  DG A  17      61.141  76.926 217.797  1.00  0.00    -0.624 OA
ATOM    412  OP2  DG A  17      62.878  77.775 219.485  1.00  0.00    -0.624 OA
ATOM    413  O5'  DG A  17      63.011  75.465 218.548  1.00  0.00    -0.287 OA
ATOM    414  C5'  DG A  17      62.520  74.728 219.669  1.00  0.00     0.216 C 
ATOM    415  C4'  DG A  17      62.839  73.257 219.517  1.00  0.00     0.180 C 
ATOM    416  O4'  DG A  17      61.614  72.545 219.209  1.00  0.00    -0.353 OA
ATOM    417  C1'  DG A  17      61.906  71.434 218.382  1.00  0.00     0.262 C 
ATOM    418  N9   DG A  17      61.074  71.517 217.186  1.00  0.00    -0.293 N 
ATOM    419  C4   DG A  17      60.821  70.501 216.298  1.00  0.00     0.187 A 
ATOM    420  N3   DG A  17      61.301  69.243 216.376  1.00  0.00    -0.044 NA
ATOM    421  C2   DG A  17      60.883  68.493 215.374  1.00  0.00     0.703 A 
ATOM    422  N2   DG A  17      61.265  67.215 215.298  1.00  0.00    -0.233 N 
ATOM    423  H21  DG A  17      61.871  66.839 216.012  1.00  0.00     0.174 HD
ATOM    424  H22  DG A  17      60.956  66.634 214.534  1.00  0.00     0.174 HD
ATOM    425  N1   DG A  17      60.059  68.937 214.373  1.00  0.00    -0.153 N 
ATOM    426  H1   DG A  17      59.802  68.281 213.654  1.00  0.00     0.187 HD
ATOM    427  C6   DG A  17      59.552  70.227 214.270  1.00  0.00     0.292 A 
ATOM    428  O6   DG A  17      58.814  70.522 213.324  1.00  0.00    -0.265 OA
ATOM    429  C5   DG A  17      59.993  71.048 215.341  1.00  0.00     0.173 A 
ATOM    430  N7   DG A  17      59.728  72.382 215.623  1.00  0.00    -0.234 NA
ATOM    431  C8   DG A  17      60.391  72.614 216.723  1.00  0.00     0.214 A 
ATOM    432  C2'  DG A  17      63.405  71.440 218.081  1.00  0.00     0.199 C 
ATOM    433  O2'  DG A  17      64.045  70.549 218.976  1.00  0.00    -0.388 OA
ATOM    434 'HO2  DG A  17      64.793  70.182 218.505  1.00  0.00     0.210 HD
ATOM    435  C3'  DG A  17      63.780  72.890 218.379  1.00  0.00     0.198 C 
ATOM    436  O3'  DG A  17      65.144  73.026 218.768  1.00  0.00    -0.279 OA
ATOM    437  P    DG A  18      66.306  72.915 217.663  1.00  0.00     0.408 P 
ATOM    438  OP1  DG A  18      67.607  72.939 218.380  1.00  0.00    -0.624 OA
ATOM    439  OP2  DG A  18      66.037  73.913 216.600  1.00  0.00    -0.624 OA
ATOM    440  O5'  DG A  18      66.117  71.462 217.037  1.00  0.00    -0.287 OA
ATOM    441  C5'  DG A  18      66.662  71.140 215.759  1.00  0.00     0.216 C 
ATOM    442  C4'  DG A  18      66.108  69.821 215.271  1.00  0.00     0.180 C 
ATOM    443  O4'  DG A  18      64.659  69.848 215.391  1.00  0.00    -0.353 OA
ATOM    444  C1'  DG A  18      64.070  69.276 214.238  1.00  0.00     0.262 C 
ATOM    445  N9   DG A  18      63.354  70.327 213.521  1.00  0.00    -0.293 N 
ATOM    446  C4   DG A  18      62.366  70.153 212.580  1.00  0.00     0.187 A 
ATOM    447  N3   DG A  18      61.879  68.969 212.149  1.00  0.00    -0.044 NA
ATOM    448  C2   DG A  18      60.932  69.127 211.241  1.00  0.00     0.703 A 
ATOM    449  N2   DG A  18      60.342  68.055 210.706  1.00  0.00    -0.233 N 
ATOM    450  H21  DG A  18      60.625  67.133 211.001  1.00  0.00     0.174 HD
ATOM    451  H22  DG A  18      59.620  68.167 210.009  1.00  0.00     0.174 HD
ATOM    452  N1   DG A  18      60.495  70.346 210.790  1.00  0.00    -0.153 N 
ATOM    453  H1   DG A  18      59.764  70.360 210.096  1.00  0.00     0.187 HD
ATOM    454  C6   DG A  18      60.980  71.576 211.217  1.00  0.00     0.292 A 
ATOM    455  O6   DG A  18      60.514  72.617 210.741  1.00  0.00    -0.265 OA
ATOM    456  C5   DG A  18      61.999  71.425 212.195  1.00  0.00     0.173 A 
ATOM    457  N7   DG A  18      62.740  72.380 212.877  1.00  0.00    -0.234 NA
ATOM    458  C8   DG A  18      63.527  71.684 213.649  1.00  0.00     0.214 A 
ATOM    459  C2'  DG A  18      65.192  68.627 213.428  1.00  0.00     0.199 C 
ATOM    460  O2'  DG A  18      65.374  67.301 213.888  1.00  0.00    -0.388 OA
ATOM    461 'HO2  DG A  18      66.315  67.184 214.020  1.00  0.00     0.210 HD
ATOM    462  C3'  DG A  18      66.376  69.509 213.803  1.00  0.00     0.198 C 
ATOM    463  O3'  DG A  18      67.621  68.838 213.624  1.00  0.00    -0.279 OA
ATOM    464  P    DT A  19      68.914  69.664 213.138  1.00  0.00     0.408 P 
ATOM    465  OP1  DT A  19      70.102  68.815 213.412  1.00  0.00    -0.624 OA
ATOM    466  OP2  DT A  19      68.844  71.031 213.709  1.00  0.00    -0.624 OA
ATOM    467  O5'  DT A  19      68.733  69.772 211.557  1.00  0.00    -0.287 OA
ATOM    468  C5'  DT A  19      69.856  69.978 210.702  1.00  0.00     0.216 C 
ATOM    469  C4'  DT A  19      69.403  70.510 209.361  1.00  0.00     0.180 C 
ATOM    470  O4'  DT A  19      68.536  69.536 208.736  1.00  0.00    -0.353 OA
ATOM    471  C1'  DT A  19      67.621  70.200 207.885  1.00  0.00     0.264 C 
ATOM    472  N1   DT A  19      66.276  69.674 208.157  1.00  0.00    -0.280 N 
ATOM    473  C6   DT A  19      65.774  69.631 209.438  1.00  0.00     0.104 A 
ATOM    474  C2   DT A  19      65.529  69.224 207.083  1.00  0.00     0.331 A 
ATOM    475  O2   DT A  19      65.937  69.247 205.937  1.00  0.00    -0.246 OA
ATOM    476  N3   DT A  19      64.285  68.746 207.404  1.00  0.00    -0.275 N 
ATOM    477  H3   DT A  19      63.725  68.406 206.637  1.00  0.00     0.173 HD
ATOM    478  C4   DT A  19      63.721  68.675 208.656  1.00  0.00     0.250 A 
ATOM    479  O4   DT A  19      62.585  68.217 208.783  1.00  0.00    -0.268 OA
ATOM    480  C5   DT A  19      64.553  69.159 209.711  1.00  0.00     0.092 A 
ATOM    481  C2'  DT A  19      67.747  71.710 208.119  1.00  0.00     0.199 C 
ATOM    482  O2'  DT A  19      68.461  72.274 207.037  1.00  0.00    -0.388 OA
ATOM    483 'HO2  DT A  19      69.008  72.970 207.402  1.00  0.00     0.210 HD
ATOM    484  C3'  DT A  19      68.563  71.777 209.409  1.00  0.00     0.198 C 
ATOM    485  O3'  DT A  19      69.390  72.937 209.460  1.00  0.00    -0.279 OA
ATOM    486  P    DA A  20      69.187  74.014 210.636  1.00  0.00     0.408 P 
ATOM    487  OP1  DA A  20      69.368  73.305 211.929  1.00  0.00    -0.624 OA
ATOM    488  OP2  DA A  20      67.921  74.743 210.372  1.00  0.00    -0.624 OA
ATOM    489  O5'  DA A  20      70.399  75.031 210.442  1.00  0.00    -0.287 OA
ATOM    490  C5'  DA A  20      71.656  74.817 211.087  1.00  0.00     0.216 C 
ATOM    491  C4'  DA A  20      72.766  74.766 210.062  1.00  0.00     0.180 C 
ATOM    492  O4'  DA A  20      72.635  73.550 209.302  1.00  0.00    -0.353 OA
ATOM    493  C1'  DA A  20      73.294  73.728 208.079  1.00  0.00     0.262 C 
ATOM    494  N9   DA A  20      72.738  72.776 207.118  1.00  0.00    -0.294 N 
ATOM    495  C4   DA A  20      73.415  72.145 206.103  1.00  0.00     0.167 A 
ATOM    496  N3   DA A  20      74.716  72.273 205.786  1.00  0.00    -0.222 NA
ATOM    497  C2   DA A  20      75.021  71.507 204.740  1.00  0.00     0.237 A 
ATOM    498  N1   DA A  20      74.233  70.687 204.031  1.00  0.00    -0.222 NA
ATOM    499  C6   DA A  20      72.933  70.582 204.378  1.00  0.00     0.155 A 
ATOM    500  N6   DA A  20      72.150  69.766 203.674  1.00  0.00    -0.382 N 
ATOM    501  H61  DA A  20      71.175  69.674 203.920  1.00  0.00     0.157 HD
ATOM    502  H62  DA A  20      72.533  69.248 202.897  1.00  0.00     0.157 HD
ATOM    503  C5   DA A  20      72.483  71.345 205.468  1.00  0.00     0.149 A 
ATOM    504  N7   DA A  20      71.239  71.468 206.071  1.00  0.00    -0.236 NA
ATOM    505  C8   DA A  20      71.443  72.326 207.040  1.00  0.00     0.214 A 
ATOM    506  C2'  DA A  20      73.110  75.194 207.683  1.00  0.00     0.199 C 
ATOM    507  O2'  DA A  20      74.344  75.674 207.182  1.00  0.00    -0.388 OA
ATOM    508 'HO2  DA A  20      74.411  76.595 207.435  1.00  0.00     0.210 HD
ATOM    509  C3'  DA A  20      72.742  75.881 209.013  1.00  0.00     0.198 C 
ATOM    510  O3'  DA A  20      73.635  76.962 209.315  1.00  0.00    -0.279 OA
ATOM    511  P    DG A  21      75.030  76.689 210.078  1.00  0.00     0.408 P 
ATOM    512  OP1  DG A  21      75.763  75.624 209.346  1.00  0.00    -0.624 OA
ATOM    513  OP2  DG A  21      74.746  76.518 211.527  1.00  0.00    -0.624 OA
ATOM    514  O5'  DG A  21      75.837  78.051 209.898  1.00  0.00    -0.287 OA
ATOM    515  C5'  DG A  21      75.337  79.278 210.430  1.00  0.00     0.216 C 
ATOM    516  C4'  DG A  21      75.391  80.361 209.379  1.00  0.00     0.180 C 
ATOM    517  O4'  DG A  21      74.298  80.154 208.442  1.00  0.00    -0.353 OA
ATOM    518  C1'  DG A  21      73.342  81.188 208.580  1.00  0.00     0.262 C 
ATOM    519  N9   DG A  21      72.015  80.581 208.624  1.00  0.00    -0.293 N 
ATOM    520  C4   DG A  21      70.816  81.213 208.393  1.00  0.00     0.187 A 
ATOM    521  N3   DG A  21      70.650  82.515 208.081  1.00  0.00    -0.044 NA
ATOM    522  C2   DG A  21      69.377  82.825 207.921  1.00  0.00     0.703 A 
ATOM    523  N2   DG A  21      69.033  84.078 207.610  1.00  0.00    -0.233 N 
ATOM    524  H21  DG A  21      69.754  84.775 207.502  1.00  0.00     0.174 HD
ATOM    525  H22  DG A  21      68.062  84.323 207.484  1.00  0.00     0.174 HD
ATOM    526  N1   DG A  21      68.344  81.931 208.053  1.00  0.00    -0.153 N 
ATOM    527  H1   DG A  21      67.406  82.266 207.910  1.00  0.00     0.187 HD
ATOM    528  C6   DG A  21      68.490  80.587 208.373  1.00  0.00     0.292 A 
ATOM    529  O6   DG A  21      67.488  79.867 208.466  1.00  0.00    -0.265 OA
ATOM    530  C5   DG A  21      69.854  80.236 208.550  1.00  0.00     0.173 A 
ATOM    531  N7   DG A  21      70.436  79.017 208.872  1.00  0.00    -0.234 NA
ATOM    532  C8   DG A  21      71.715  79.271 208.904  1.00  0.00     0.214 A 
ATOM    533  C2'  DG A  21      73.699  81.978 209.839  1.00  0.00     0.199 C 
ATOM    534  O2'  DG A  21      73.371  83.340 209.628  1.00  0.00    -0.388 OA
ATOM    535 'HO2  DG A  21      73.928  83.650 208.914  1.00  0.00     0.210 HD
ATOM    536  C3'  DG A  21      75.210  81.783 209.898  1.00  0.00     0.198 C 
ATOM    537  O3'  DG A  21      75.910  82.722 209.088  1.00  0.00    -0.279 OA
ATOM    538  P    DA A  22      77.018  83.684 209.748  1.00  0.00     0.408 P 
ATOM    539  OP1  DA A  22      77.628  82.964 210.897  1.00  0.00    -0.624 OA
ATOM    540  OP2  DA A  22      76.404  85.019 209.962  1.00  0.00    -0.624 OA
ATOM    541  O5'  DA A  22      78.125  83.829 208.612  1.00  0.00    -0.287 OA
ATOM    542  C5'  DA A  22      78.888  82.704 208.178  1.00  0.00     0.216 C 
ATOM    543  C4'  DA A  22      79.035  82.722 206.674  1.00  0.00     0.180 C 
ATOM    544  O4'  DA A  22      77.838  82.150 206.081  1.00  0.00    -0.353 OA
ATOM    545  C1'  DA A  22      77.472  82.891 204.930  1.00  0.00     0.262 C 
ATOM    546  N9   DA A  22      76.175  83.520 205.182  1.00  0.00    -0.294 N 
ATOM    547  C4   DA A  22      75.523  84.397 204.350  1.00  0.00     0.167 A 
ATOM    548  N3   DA A  22      75.939  84.847 203.154  1.00  0.00    -0.222 NA
ATOM    549  C2   DA A  22      75.048  85.686 202.632  1.00  0.00     0.237 A 
ATOM    550  N1   DA A  22      73.875  86.095 203.133  1.00  0.00    -0.222 NA
ATOM    551  C6   DA A  22      73.487  85.625 204.337  1.00  0.00     0.155 A 
ATOM    552  N6   DA A  22      72.320  86.035 204.833  1.00  0.00    -0.382 N 
ATOM    553  H61  DA A  22      72.008  85.698 205.732  1.00  0.00     0.157 HD
ATOM    554  H62  DA A  22      71.758  86.684 204.304  1.00  0.00     0.157 HD
ATOM    555  C5   DA A  22      74.345  84.726 204.995  1.00  0.00     0.149 A 
ATOM    556  N7   DA A  22      74.255  84.067 206.214  1.00  0.00    -0.236 NA
ATOM    557  C8   DA A  22      75.360  83.367 206.277  1.00  0.00     0.214 A 
ATOM    558  C2'  DA A  22      78.596  83.888 204.649  1.00  0.00     0.199 C 
ATOM    559  O2'  DA A  22      79.551  83.270 203.807  1.00  0.00    -0.388 OA
ATOM    560 'HO2  DA A  22      80.409  83.420 204.205  1.00  0.00     0.210 HD
ATOM    561  C3'  DA A  22      79.154  84.106 206.049  1.00  0.00     0.198 C 
ATOM    562  O3'  DA A  22      80.506  84.557 206.033  1.00  0.00    -0.279 OA
ATOM    563  P    DC A  23      80.870  86.013 206.613  1.00  0.00     0.408 P 
ATOM    564  OP1  DC A  23      82.348  86.147 206.579  1.00  0.00    -0.624 OA
ATOM    565  OP2  DC A  23      80.146  86.205 207.896  1.00  0.00    -0.624 OA
ATOM    566  O5'  DC A  23      80.256  87.020 205.543  1.00  0.00    -0.287 OA
ATOM    567  C5'  DC A  23      80.520  86.866 204.148  1.00  0.00     0.216 C 
ATOM    568  C4'  DC A  23      79.637  87.795 203.347  1.00  0.00     0.180 C 
ATOM    569  O4'  DC A  23      78.333  87.172 203.182  1.00  0.00    -0.353 OA
ATOM    570  C1'  DC A  23      77.312  88.116 203.456  1.00  0.00     0.264 C 
ATOM    571  N1   DC A  23      76.676  87.755 204.735  1.00  0.00    -0.278 N 
ATOM    572  C6   DC A  23      77.346  87.010 205.665  1.00  0.00     0.102 A 
ATOM    573  C2   DC A  23      75.370  88.186 204.986  1.00  0.00     0.352 A 
ATOM    574  O2   DC A  23      74.784  88.859 204.128  1.00  0.00    -0.244 OA
ATOM    575  N3   DC A  23      74.781  87.858 206.160  1.00  0.00    -0.177 NA
ATOM    576  C4   DC A  23      75.445  87.131 207.058  1.00  0.00     0.128 A 
ATOM    577  N4   DC A  23      74.823  86.831 208.198  1.00  0.00    -0.384 N 
ATOM    578  H41  DC A  23      75.293  86.283 208.904  1.00  0.00     0.157 HD
ATOM    579  H42  DC A  23      73.880  87.155 208.351  1.00  0.00     0.157 HD
ATOM    580  C5   DC A  23      76.775  86.679 206.829  1.00  0.00     0.067 A 
ATOM    581  C2'  DC A  23      77.974  89.491 203.461  1.00  0.00     0.199 C 
ATOM    582  O2'  DC A  23      78.050  89.966 202.129  1.00  0.00    -0.388 OA
ATOM    583 'HO2  DC A  23      78.924  90.341 202.020  1.00  0.00     0.210 HD
ATOM    584  C3'  DC A  23      79.355  89.142 204.001  1.00  0.00     0.198 C 
ATOM    585  O3'  DC A  23      80.341  90.109 203.653  1.00  0.00    -0.279 OA
ATOM    586  P    DA A  24      80.971  91.052 204.794  1.00  0.00     0.408 P 
ATOM    587  OP1  DA A  24      81.995  91.911 204.146  1.00  0.00    -0.624 OA
ATOM    588  OP2  DA A  24      81.354  90.200 205.949  1.00  0.00    -0.624 OA
ATOM    589  O5'  DA A  24      79.754  91.977 205.244  1.00  0.00    -0.287 OA
ATOM    590  C5'  DA A  24      79.002  92.719 204.286  1.00  0.00     0.216 C 
ATOM    591  C4'  DA A  24      77.695  93.176 204.890  1.00  0.00     0.180 C 
ATOM    592  O4'  DA A  24      76.837  92.020 205.087  1.00  0.00    -0.353 OA
ATOM    593  C1'  DA A  24      76.112  92.163 206.296  1.00  0.00     0.262 C 
ATOM    594  N9   DA A  24      76.483  91.063 207.187  1.00  0.00    -0.294 N 
ATOM    595  C4   DA A  24      75.845  90.710 208.351  1.00  0.00     0.167 A 
ATOM    596  N3   DA A  24      74.768  91.296 208.901  1.00  0.00    -0.222 NA
ATOM    597  C2   DA A  24      74.427  90.685 210.032  1.00  0.00     0.237 A 
ATOM    598  N1   DA A  24      74.999  89.633 210.632  1.00  0.00    -0.222 NA
ATOM    599  C6   DA A  24      76.078  89.066 210.052  1.00  0.00     0.155 A 
ATOM    600  N6   DA A  24      76.643  88.015 210.648  1.00  0.00    -0.382 N 
ATOM    601  H61  DA A  24      77.451  87.572 210.234  1.00  0.00     0.157 HD
ATOM    602  H62  DA A  24      76.264  87.662 211.515  1.00  0.00     0.157 HD
ATOM    603  C5   DA A  24      76.541  89.622 208.847  1.00  0.00     0.149 A 
ATOM    604  N7   DA A  24      77.600  89.295 208.011  1.00  0.00    -0.236 NA
ATOM    605  C8   DA A  24      77.521  90.178 207.045  1.00  0.00     0.214 A 
ATOM    606  C2'  DA A  24      76.427  93.546 206.867  1.00  0.00     0.199 C 
ATOM    607  O2'  DA A  24      75.469  94.469 206.379  1.00  0.00    -0.388 OA
ATOM    608 'HO2  DA A  24      75.960  95.179 205.964  1.00  0.00     0.210 HD
ATOM    609  C3'  DA A  24      77.803  93.813 206.268  1.00  0.00     0.198 C 
ATOM    610  O3'  DA A  24      78.097  95.204 206.176  1.00  0.00    -0.279 OA
ATOM    611  P    DC A  25      79.298  95.827 207.046  1.00  0.00     0.408 P 
ATOM    612  OP1  DC A  25      79.428  97.255 206.661  1.00  0.00    -0.624 OA
ATOM    613  OP2  DC A  25      80.475  94.928 206.939  1.00  0.00    -0.624 OA
ATOM    614  O5'  DC A  25      78.758  95.763 208.543  1.00  0.00    -0.287 OA
ATOM    615  C5'  DC A  25      77.551  96.425 208.919  1.00  0.00     0.216 C 
ATOM    616  C4'  DC A  25      77.398  96.421 210.423  1.00  0.00     0.180 C 
ATOM    617  O4'  DC A  25      76.624  95.252 210.812  1.00  0.00    -0.353 OA
ATOM    618  C1'  DC A  25      77.139  94.721 212.020  1.00  0.00     0.264 C 
ATOM    619  N1   DC A  25      77.666  93.372 211.756  1.00  0.00    -0.278 N 
ATOM    620  C6   DC A  25      77.920  92.952 210.479  1.00  0.00     0.102 A 
ATOM    621  C2   DC A  25      77.910  92.523 212.838  1.00  0.00     0.352 A 
ATOM    622  O2   DC A  25      77.665  92.926 213.983  1.00  0.00    -0.244 OA
ATOM    623  N3   DC A  25      78.406  91.288 212.611  1.00  0.00    -0.177 NA
ATOM    624  C4   DC A  25      78.654  90.888 211.364  1.00  0.00     0.128 A 
ATOM    625  N4   DC A  25      79.147  89.661 211.192  1.00  0.00    -0.384 N 
ATOM    626  H41  DC A  25      79.350  89.321 210.265  1.00  0.00     0.157 HD
ATOM    627  H42  DC A  25      79.322  89.076 211.999  1.00  0.00     0.157 HD
ATOM    628  C5   DC A  25      78.410  91.730 210.239  1.00  0.00     0.067 A 
ATOM    629  C2'  DC A  25      78.203  95.691 212.529  1.00  0.00     0.199 C 
ATOM    630  O2'  DC A  25      77.576  96.658 213.351  1.00  0.00    -0.388 OA
ATOM    631 'HO2  DC A  25      78.036  96.646 214.192  1.00  0.00     0.210 HD
ATOM    632  C3'  DC A  25      78.689  96.297 211.219  1.00  0.00     0.198 C 
ATOM    633  O3'  DC A  25      79.328  97.557 211.406  1.00  0.00    -0.279 OA
ATOM    634  P    DG A  26      80.836  97.612 211.961  1.00  0.00     0.408 P 
ATOM    635  OP1  DG A  26      81.320  99.007 211.800  1.00  0.00    -0.624 OA
ATOM    636  OP2  DG A  26      81.604  96.494 211.354  1.00  0.00    -0.624 OA
ATOM    637  O5'  DG A  26      80.687  97.315 213.521  1.00  0.00    -0.287 OA
ATOM    638  C5'  DG A  26      80.050  98.252 214.388  1.00  0.00     0.216 C 
ATOM    639  C4'  DG A  26      80.150  97.788 215.823  1.00  0.00     0.180 C 
ATOM    640  O4'  DG A  26      79.495  96.496 215.960  1.00  0.00    -0.353 OA
ATOM    641  C1'  DG A  26      80.195  95.707 216.910  1.00  0.00     0.262 C 
ATOM    642  N9   DG A  26      80.691  94.508 216.241  1.00  0.00    -0.293 N 
ATOM    643  C4   DG A  26      81.113  93.349 216.847  1.00  0.00     0.187 A 
ATOM    644  N3   DG A  26      81.141  93.112 218.175  1.00  0.00    -0.044 NA
ATOM    645  C2   DG A  26      81.599  91.904 218.451  1.00  0.00     0.703 A 
ATOM    646  N2   DG A  26      81.692  91.506 219.722  1.00  0.00    -0.233 N 
ATOM    647  H21  DG A  26      81.409  92.135 220.459  1.00  0.00     0.174 HD
ATOM    648  H22  DG A  26      82.036  90.583 219.947  1.00  0.00     0.174 HD
ATOM    649  N1   DG A  26      82.000  90.998 217.502  1.00  0.00    -0.153 N 
ATOM    650  H1   DG A  26      82.337  90.100 217.819  1.00  0.00     0.187 HD
ATOM    651  C6   DG A  26      81.980  91.218 216.130  1.00  0.00     0.292 A 
ATOM    652  O6   DG A  26      82.364  90.329 215.360  1.00  0.00    -0.265 OA
ATOM    653  C5   DG A  26      81.490  92.513 215.817  1.00  0.00     0.173 A 
ATOM    654  N7   DG A  26      81.308  93.134 214.587  1.00  0.00    -0.234 NA
ATOM    655  C8   DG A  26      80.836  94.313 214.890  1.00  0.00     0.214 A 
ATOM    656  C2'  DG A  26      81.304  96.579 217.497  1.00  0.00     0.199 C 
ATOM    657  O2'  DG A  26      80.796  97.262 218.628  1.00  0.00    -0.388 OA
ATOM    658 'HO2  DG A  26      81.136  98.156 218.586  1.00  0.00     0.210 HD
ATOM    659  C3'  DG A  26      81.558  97.539 216.342  1.00  0.00     0.198 C 
ATOM    660  O3'  DG A  26      82.195  98.742 216.760  1.00  0.00    -0.279 OA
ATOM    661  P    DC A  27      83.785  98.906 216.585  1.00  0.00     0.408 P 
ATOM    662  OP1  DC A  27      84.157 100.235 217.136  1.00  0.00    -0.624 OA
ATOM    663  OP2  DC A  27      84.141  98.568 215.184  1.00  0.00    -0.624 OA
ATOM    664  O5'  DC A  27      84.398  97.783 217.537  1.00  0.00    -0.287 OA
ATOM    665  C5'  DC A  27      84.169  97.811 218.946  1.00  0.00     0.216 C 
ATOM    666  C4'  DC A  27      84.517  96.472 219.558  1.00  0.00     0.180 C 
ATOM    667  O4'  DC A  27      83.733  95.433 218.917  1.00  0.00    -0.353 OA
ATOM    668  C1'  DC A  27      84.474  94.225 218.898  1.00  0.00     0.264 C 
ATOM    669  N1   DC A  27      84.564  93.751 217.507  1.00  0.00    -0.278 N 
ATOM    670  C6   DC A  27      84.201  94.556 216.463  1.00  0.00     0.102 A 
ATOM    671  C2   DC A  27      85.030  92.456 217.266  1.00  0.00     0.352 A 
ATOM    672  O2   DC A  27      85.352  91.744 218.229  1.00  0.00    -0.244 OA
ATOM    673  N3   DC A  27      85.119  92.010 215.995  1.00  0.00    -0.177 NA
ATOM    674  C4   DC A  27      84.759  92.801 214.984  1.00  0.00     0.128 A 
ATOM    675  N4   DC A  27      84.860  92.315 213.749  1.00  0.00    -0.384 N 
ATOM    676  H41  DC A  27      84.597  92.881 212.954  1.00  0.00     0.157 HD
ATOM    677  H42  DC A  27      85.196  91.372 213.607  1.00  0.00     0.157 HD
ATOM    678  C5   DC A  27      84.279  94.126 215.197  1.00  0.00     0.067 A 
ATOM    679  C2'  DC A  27      85.837  94.501 219.538  1.00  0.00     0.199 C 
ATOM    680  O2'  DC A  27      85.771  94.143 220.905  1.00  0.00    -0.388 OA
ATOM    681 'HO2  DC A  27      86.164  94.862 221.402  1.00  0.00     0.210 HD
ATOM    682  C3'  DC A  27      85.953  96.011 219.366  1.00  0.00     0.198 C 
ATOM    683  O3'  DC A  27      86.828  96.600 220.324  1.00  0.00    -0.279 OA
ATOM    684  P    DC A  28      88.406  96.691 220.018  1.00  0.00     0.408 P 
ATOM    685  OP1  DC A  28      89.035  97.418 221.152  1.00  0.00    -0.624 OA
ATOM    686  OP2  DC A  28      88.588  97.194 218.633  1.00  0.00    -0.624 OA
ATOM    687  O5'  DC A  28      88.898  95.174 220.062  1.00  0.00    -0.287 OA
ATOM    688  C5'  DC A  28      89.239  94.547 221.298  1.00  0.00     0.216 C 
ATOM    689  C4'  DC A  28      89.984  93.256 221.043  1.00  0.00     0.180 C 
ATOM    690  O4'  DC A  28      89.100  92.326 220.358  1.00  0.00    -0.353 OA
ATOM    691  C1'  DC A  28      89.841  91.573 219.412  1.00  0.00     0.264 C 
ATOM    692  N1   DC A  28      89.314  91.865 218.070  1.00  0.00    -0.278 N 
ATOM    693  C6   DC A  28      88.677  93.045 217.809  1.00  0.00     0.102 A 
ATOM    694  C2   DC A  28      89.475  90.912 217.060  1.00  0.00     0.352 A 
ATOM    695  O2   DC A  28      90.059  89.850 217.322  1.00  0.00    -0.244 OA
ATOM    696  N3   DC A  28      88.994  91.170 215.825  1.00  0.00    -0.177 NA
ATOM    697  C4   DC A  28      88.371  92.324 215.581  1.00  0.00     0.128 A 
ATOM    698  N4   DC A  28      87.912  92.533 214.347  1.00  0.00    -0.384 N 
ATOM    699  H41  DC A  28      87.434  93.391 214.117  1.00  0.00     0.157 HD
ATOM    700  H42  DC A  28      88.044  91.821 213.641  1.00  0.00     0.157 HD
ATOM    701  C5   DC A  28      88.193  93.314 216.589  1.00  0.00     0.067 A 
ATOM    702  C2'  DC A  28      91.314  91.943 219.585  1.00  0.00     0.199 C 
ATOM    703  O2'  DC A  28      91.887  91.070 220.539  1.00  0.00    -0.388 OA
ATOM    704 'HO2  DC A  28      92.264  91.619 221.228  1.00  0.00     0.210 HD
ATOM    705  C3'  DC A  28      91.197  93.360 220.130  1.00  0.00     0.198 C 
ATOM    706  O3'  DC A  28      92.364  93.763 220.843  1.00  0.00    -0.279 OA
ATOM    707  P    DG A  29      93.657  94.274 220.035  1.00  0.00     0.408 P 
ATOM    708  OP1  DG A  29      94.677  94.667 221.041  1.00  0.00    -0.624 OA
ATOM    709  OP2  DG A  29      93.214  95.259 219.016  1.00  0.00    -0.624 OA
ATOM    710  O5'  DG A  29      94.183  92.972 219.279  1.00  0.00    -0.287 OA
ATOM    711  C5'  DG A  29      94.660  91.841 220.009  1.00  0.00     0.216 C 
ATOM    712  C4'  DG A  29      95.449  90.925 219.101  1.00  0.00     0.180 C 
ATOM    713  O4'  DG A  29      94.533  90.122 218.313  1.00  0.00    -0.353 OA
ATOM    714  C1'  DG A  29      95.139  89.797 217.075  1.00  0.00     0.262 C 
ATOM    715  N9   DG A  29      94.230  90.176 215.999  1.00  0.00    -0.293 N 
ATOM    716  C4   DG A  29      94.122  89.571 214.770  1.00  0.00     0.187 A 
ATOM    717  N3   DG A  29      94.835  88.507 214.345  1.00  0.00    -0.044 NA
ATOM    718  C2   DG A  29      94.510  88.155 213.114  1.00  0.00     0.703 A 
ATOM    719  N2   DG A  29      95.121  87.115 212.538  1.00  0.00    -0.233 N 
ATOM    720  H21  DG A  29      95.826  86.609 213.053  1.00  0.00     0.174 HD
ATOM    721  H22  DG A  29      94.876  86.836 211.600  1.00  0.00     0.174 HD
ATOM    722  N1   DG A  29      93.565  88.796 212.357  1.00  0.00    -0.153 N 
ATOM    723  H1   DG A  29      93.389  88.449 211.426  1.00  0.00     0.187 HD
ATOM    724  C6   DG A  29      92.818  89.893 212.771  1.00  0.00     0.292 A 
ATOM    725  O6   DG A  29      91.992  90.398 212.001  1.00  0.00    -0.265 OA
ATOM    726  C5   DG A  29      93.153  90.282 214.095  1.00  0.00     0.173 A 
ATOM    727  N7   DG A  29      92.655  91.310 214.885  1.00  0.00    -0.234 NA
ATOM    728  C8   DG A  29      93.322  91.207 216.003  1.00  0.00     0.214 A 
ATOM    729  C2'  DG A  29      96.491  90.512 217.008  1.00  0.00     0.199 C 
ATOM    730  O2'  DG A  29      97.502  89.596 217.388  1.00  0.00    -0.388 OA
ATOM    731 'HO2  DG A  29      98.056  89.471 216.616  1.00  0.00     0.210 HD
ATOM    732  C3'  DG A  29      96.312  91.610 218.054  1.00  0.00     0.198 C 
ATOM    733  O3'  DG A  29      97.553  92.049 218.601  1.00  0.00    -0.279 OA
ATOM    734  P    DG A  30      98.389  93.205 217.858  1.00  0.00     0.408 P 
ATOM    735  OP1  DG A  30      99.653  93.396 218.616  1.00  0.00    -0.624 OA
ATOM    736  OP2  DG A  30      97.487  94.365 217.637  1.00  0.00    -0.624 OA
ATOM    737  O5'  DG A  30      98.751  92.577 216.438  1.00  0.00    -0.287 OA
ATOM    738  C5'  DG A  30      99.906  91.757 216.268  1.00  0.00     0.216 C 
ATOM    739  C4'  DG A  30      99.770  90.912 215.020  1.00  0.00     0.180 C 
ATOM    740  O4'  DG A  30      98.384  90.501 214.875  1.00  0.00    -0.353 OA
ATOM    741  C1'  DG A  30      98.012  90.536 213.510  1.00  0.00     0.262 C 
ATOM    742  N9   DG A  30      96.949  91.525 213.347  1.00  0.00    -0.293 N 
ATOM    743  C4   DG A  30      96.048  91.590 212.312  1.00  0.00     0.187 A 
ATOM    744  N3   DG A  30      95.987  90.749 211.259  1.00  0.00    -0.044 NA
ATOM    745  C2   DG A  30      95.012  91.070 210.428  1.00  0.00     0.703 A 
ATOM    746  N2   DG A  30      94.816  90.341 209.326  1.00  0.00    -0.233 N 
ATOM    747  H21  DG A  30      95.419  89.551 209.143  1.00  0.00     0.174 HD
ATOM    748  H22  DG A  30      94.073  90.570 208.684  1.00  0.00     0.174 HD
ATOM    749  N1   DG A  30      94.160  92.128 210.614  1.00  0.00    -0.153 N 
ATOM    750  H1   DG A  30      93.445  92.289 209.923  1.00  0.00     0.187 HD
ATOM    751  C6   DG A  30      94.203  93.008 211.690  1.00  0.00     0.292 A 
ATOM    752  O6   DG A  30      93.385  93.931 211.760  1.00  0.00    -0.265 OA
ATOM    753  C5   DG A  30      95.248  92.678 212.592  1.00  0.00     0.173 A 
ATOM    754  N7   DG A  30      95.639  93.285 213.778  1.00  0.00    -0.234 NA
ATOM    755  C8   DG A  30      96.649  92.568 214.187  1.00  0.00     0.214 A 
ATOM    756  C2'  DG A  30      99.269  90.843 212.695  1.00  0.00     0.199 C 
ATOM    757  O2'  DG A  30      99.893  89.622 212.347  1.00  0.00    -0.388 OA
ATOM    758 'HO2  DG A  30     100.831  89.745 212.487  1.00  0.00     0.210 HD
ATOM    759  C3'  DG A  30     100.103  91.616 213.711  1.00  0.00     0.198 C 
ATOM    760  O3'  DG A  30     101.498  91.554 213.425  1.00  0.00    -0.279 OA
ATOM    761  P    DA A  31     102.163  92.639 212.440  1.00  0.00     0.408 P 
ATOM    762  OP1  DA A  31     103.562  92.206 212.191  1.00  0.00    -0.624 OA
ATOM    763  OP2  DA A  31     101.903  93.992 212.994  1.00  0.00    -0.624 OA
ATOM    764  O5'  DA A  31     101.342  92.487 211.083  1.00  0.00    -0.287 OA
ATOM    765  C5'  DA A  31     101.618  91.426 210.169  1.00  0.00     0.216 C 
ATOM    766  C4'  DA A  31     100.984  91.716 208.827  1.00  0.00     0.180 C 
ATOM    767  O4'  DA A  31      99.539  91.730 208.989  1.00  0.00    -0.353 OA
ATOM    768  C1'  DA A  31      98.988  92.830 208.289  1.00  0.00     0.262 C 
ATOM    769  N9   DA A  31      98.457  93.779 209.265  1.00  0.00    -0.294 N 
ATOM    770  C4   DA A  31      97.485  94.723 209.037  1.00  0.00     0.167 A 
ATOM    771  N3   DA A  31      96.835  94.961 207.884  1.00  0.00    -0.222 NA
ATOM    772  C2   DA A  31      95.960  95.954 208.038  1.00  0.00     0.237 A 
ATOM    773  N1   DA A  31      95.684  96.679 209.128  1.00  0.00    -0.222 NA
ATOM    774  C6   DA A  31      96.356  96.413 210.268  1.00  0.00     0.155 A 
ATOM    775  N6   DA A  31      96.078  97.136 211.353  1.00  0.00    -0.382 N 
ATOM    776  H61  DA A  31      96.568  96.956 212.219  1.00  0.00     0.157 HD
ATOM    777  H62  DA A  31      95.384  97.866 211.301  1.00  0.00     0.157 HD
ATOM    778  C5   DA A  31      97.311  95.383 210.240  1.00  0.00     0.149 A 
ATOM    779  N7   DA A  31      98.157  94.865 211.211  1.00  0.00    -0.236 NA
ATOM    780  C8   DA A  31      98.812  93.919 210.585  1.00  0.00     0.214 A 
ATOM    781  C2'  DA A  31     100.093  93.409 207.408  1.00  0.00     0.199 C 
ATOM    782  O2'  DA A  31     100.087  92.723 206.170  1.00  0.00    -0.388 OA
ATOM    783 'HO2  DA A  31     100.152  91.788 206.369  1.00  0.00     0.210 HD
ATOM    784  C3'  DA A  31     101.335  93.071 208.225  1.00  0.00     0.198 C 
ATOM    785  O3'  DA A  31     102.506  92.990 207.419  1.00  0.00    -0.279 OA
ATOM    786  P    DT A  32     103.452  94.280 207.248  1.00  0.00     0.408 P 
ATOM    787  OP1  DT A  32     104.550  93.898 206.324  1.00  0.00    -0.624 OA
ATOM    788  OP2  DT A  32     103.779  94.804 208.598  1.00  0.00    -0.624 OA
ATOM    789  O5'  DT A  32     102.528  95.345 206.504  1.00  0.00    -0.287 OA
ATOM    790  C5'  DT A  32     102.928  96.710 206.388  1.00  0.00     0.216 C 
ATOM    791  C4'  DT A  32     102.190  97.375 205.248  1.00  0.00     0.180 C 
ATOM    792  O4'  DT A  32     102.485  96.661 204.020  1.00  0.00    -0.353 OA
ATOM    793  C1'  DT A  32     101.341  96.653 203.184  1.00  0.00     0.264 C 
ATOM    794  N1   DT A  32     100.986  95.255 202.900  1.00  0.00    -0.280 N 
ATOM    795  C6   DT A  32     101.388  94.231 203.729  1.00  0.00     0.104 A 
ATOM    796  C2   DT A  32     100.234  95.000 201.768  1.00  0.00     0.331 A 
ATOM    797  O2   DT A  32      99.854  95.877 201.013  1.00  0.00    -0.246 OA
ATOM    798  N3   DT A  32      99.941  93.679 201.551  1.00  0.00    -0.275 N 
ATOM    799  H3   DT A  32      99.394  93.471 200.730  1.00  0.00     0.173 HD
ATOM    800  C4   DT A  32     100.312  92.609 202.333  1.00  0.00     0.250 A 
ATOM    801  O4   DT A  32      99.978  91.473 201.998  1.00  0.00    -0.268 OA
ATOM    802  C5   DT A  32     101.082  92.953 203.486  1.00  0.00     0.092 A 
ATOM    803  C2'  DT A  32     100.233  97.440 203.889  1.00  0.00     0.199 C 
ATOM    804  O2'  DT A  32     100.264  98.775 203.423  1.00  0.00    -0.388 OA
ATOM    805 'HO2  DT A  32      99.453  98.910 202.929  1.00  0.00     0.210 HD
ATOM    806  C3'  DT A  32     100.671  97.352 205.349  1.00  0.00     0.198 C 
ATOM    807  O3'  DT A  32     100.192  98.447 206.126  1.00  0.00    -0.279 OA
ATOM    808  P    DT A  33      98.822  98.303 206.954  1.00  0.00     0.408 P 
ATOM    809  OP1  DT A  33      98.647  99.552 207.737  1.00  0.00    -0.624 OA
ATOM    810  OP2  DT A  33      98.837  96.995 207.656  1.00  0.00    -0.624 OA
ATOM    811  O5'  DT A  33      97.692  98.255 205.831  1.00  0.00    -0.287 OA
ATOM    812  C5'  DT A  33      97.527  99.335 204.912  1.00  0.00     0.216 C 
ATOM    813  C4'  DT A  33      96.479  98.986 203.881  1.00  0.00     0.180 C 
ATOM    814  O4'  DT A  33      97.055  98.054 202.927  1.00  0.00    -0.353 OA
ATOM    815  C1'  DT A  33      96.104  97.060 202.593  1.00  0.00     0.264 C 
ATOM    816  N1   DT A  33      96.615  95.761 203.051  1.00  0.00    -0.280 N 
ATOM    817  C6   DT A  33      97.227  95.632 204.278  1.00  0.00     0.104 A 
ATOM    818  C2   DT A  33      96.462  94.672 202.213  1.00  0.00     0.331 A 
ATOM    819  O2   DT A  33      95.929  94.747 201.120  1.00  0.00    -0.246 OA
ATOM    820  N3   DT A  33      96.958  93.491 202.701  1.00  0.00    -0.275 N 
ATOM    821  H3   DT A  33      96.851  92.682 202.110  1.00  0.00     0.173 HD
ATOM    822  C4   DT A  33      97.580  93.292 203.912  1.00  0.00     0.250 A 
ATOM    823  O4   DT A  33      97.966  92.164 204.214  1.00  0.00    -0.268 OA
ATOM    824  C5   DT A  33      97.701  94.465 204.719  1.00  0.00     0.092 A 
ATOM    825  C2'  DT A  33      94.772  97.457 203.230  1.00  0.00     0.199 C 
ATOM    826  O2'  DT A  33      94.047  98.256 202.316  1.00  0.00    -0.388 OA
ATOM    827 'HO2  DT A  33      94.291  99.165 202.502  1.00  0.00     0.210 HD
ATOM    828  C3'  DT A  33      95.242  98.282 204.422  1.00  0.00     0.198 C 
ATOM    829  O3'  DT A  33      94.259  99.221 204.848  1.00  0.00    -0.279 OA
ATOM    830  P    DT A  34      93.790  99.246 206.384  1.00  0.00     0.408 P 
ATOM    831  OP1  DT A  34      92.407  99.789 206.412  1.00  0.00    -0.624 OA
ATOM    832  OP2  DT A  34      94.853  99.905 207.184  1.00  0.00    -0.624 OA
ATOM    833  O5'  DT A  34      93.735  97.707 206.797  1.00  0.00    -0.287 OA
ATOM    834  C5'  DT A  34      92.506  96.981 206.783  1.00  0.00     0.216 C 
ATOM    835  C4'  DT A  34      92.227  96.453 205.395  1.00  0.00     0.180 C 
ATOM    836  O4'  DT A  34      93.317  95.569 205.006  1.00  0.00    -0.353 OA
ATOM    837  C1'  DT A  34      92.831  94.251 204.849  1.00  0.00     0.264 C 
ATOM    838  N1   DT A  34      93.822  93.320 205.411  1.00  0.00    -0.280 N 
ATOM    839  C6   DT A  34      94.403  92.347 204.631  1.00  0.00     0.104 A 
ATOM    840  C2   DT A  34      94.155  93.452 206.748  1.00  0.00     0.331 A 
ATOM    841  O2   DT A  34      93.654  94.288 207.478  1.00  0.00    -0.246 OA
ATOM    842  N3   DT A  34      95.095  92.564 207.202  1.00  0.00    -0.275 N 
ATOM    843  H3   DT A  34      95.377  92.659 208.166  1.00  0.00     0.173 HD
ATOM    844  C4   DT A  34      95.713  91.570 206.479  1.00  0.00     0.250 A 
ATOM    845  O4   DT A  34      96.536  90.844 207.035  1.00  0.00    -0.268 OA
ATOM    846  C5   DT A  34      95.309  91.491 205.111  1.00  0.00     0.092 A 
ATOM    847  C2'  DT A  34      91.465  94.199 205.529  1.00  0.00     0.199 C 
ATOM    848  O2'  DT A  34      90.671  93.227 204.872  1.00  0.00    -0.388 OA
ATOM    849 'HO2  DT A  34      89.799  93.599 204.754  1.00  0.00     0.210 HD
ATOM    850  C3'  DT A  34      90.959  95.614 205.272  1.00  0.00     0.198 C 
ATOM    851  O3'  DT A  34      90.365  95.761 203.983  1.00  0.00    -0.279 OA
ATOM    852  P    DA A  35      88.766  95.684 203.824  1.00  0.00     0.408 P 
ATOM    853  OP1  DA A  35      88.165  96.440 204.951  1.00  0.00    -0.624 OA
ATOM    854  OP2  DA A  35      88.396  94.261 203.615  1.00  0.00    -0.624 OA
ATOM    855  O5'  DA A  35      88.469  96.486 202.480  1.00  0.00    -0.287 OA
ATOM    856  C5'  DA A  35      88.913  97.833 202.314  1.00  0.00     0.216 C 
ATOM    857  C4'  DA A  35      87.819  98.678 201.699  1.00  0.00     0.180 C 
ATOM    858  O4'  DA A  35      88.349  99.309 200.499  1.00  0.00    -0.353 OA
ATOM    859  C1'  DA A  35      87.436  99.149 199.432  1.00  0.00     0.262 C 
ATOM    860  N9   DA A  35      87.976  98.150 198.509  1.00  0.00    -0.294 N 
ATOM    861  C4   DA A  35      87.756  98.088 197.155  1.00  0.00     0.167 A 
ATOM    862  N3   DA A  35      87.011  98.923 196.412  1.00  0.00    -0.222 NA
ATOM    863  C2   DA A  35      87.024  98.552 195.134  1.00  0.00     0.237 A 
ATOM    864  N1   DA A  35      87.652  97.517 194.557  1.00  0.00    -0.222 NA
ATOM    865  C6   DA A  35      88.394  96.698 195.333  1.00  0.00     0.155 A 
ATOM    866  N6   DA A  35      89.020  95.670 194.757  1.00  0.00    -0.382 N 
ATOM    867  H61  DA A  35      89.583  95.040 195.311  1.00  0.00     0.157 HD
ATOM    868  H62  DA A  35      88.933  95.518 193.763  1.00  0.00     0.157 HD
ATOM    869  C5   DA A  35      88.460  96.984 196.709  1.00  0.00     0.149 A 
ATOM    870  N7   DA A  35      89.116  96.362 197.764  1.00  0.00    -0.236 NA
ATOM    871  C8   DA A  35      88.796  97.091 198.805  1.00  0.00     0.214 A 
ATOM    872  C2'  DA A  35      86.100  98.753 200.054  1.00  0.00     0.199 C 
ATOM    873  O2'  DA A  35      85.433  99.925 200.484  1.00  0.00    -0.388 OA
ATOM    874 'HO2  DA A  35      85.074  99.733 201.350  1.00  0.00     0.210 HD
ATOM    875  C3'  DA A  35      86.573  97.924 201.240  1.00  0.00     0.198 C 
ATOM    876  O3'  DA A  35      85.592  97.849 202.272  1.00  0.00    -0.279 OA
ATOM    877  P    DG A  36      84.346  96.842 202.118  1.00  0.00     0.408 P 
ATOM    878  OP1  DG A  36      83.535  96.957 203.357  1.00  0.00    -0.624 OA
ATOM    879  OP2  DG A  36      84.863  95.514 201.701  1.00  0.00    -0.624 OA
ATOM    880  O5'  DG A  36      83.500  97.450 200.911  1.00  0.00    -0.287 OA
ATOM    881  C5'  DG A  36      82.649  98.580 201.105  1.00  0.00     0.216 C 
ATOM    882  C4'  DG A  36      81.995  98.977 199.801  1.00  0.00     0.180 C 
ATOM    883  O4'  DG A  36      82.981  98.942 198.738  1.00  0.00    -0.353 OA
ATOM    884  C1'  DG A  36      82.353  98.581 197.520  1.00  0.00     0.262 C 
ATOM    885  N9   DG A  36      83.038  97.410 196.978  1.00  0.00    -0.293 N 
ATOM    886  C4   DG A  36      83.054  97.007 195.665  1.00  0.00     0.187 A 
ATOM    887  N3   DG A  36      82.435  97.627 194.637  1.00  0.00    -0.044 NA
ATOM    888  C2   DG A  36      82.635  96.999 193.491  1.00  0.00     0.703 A 
ATOM    889  N2   DG A  36      82.094  97.480 192.367  1.00  0.00    -0.233 N 
ATOM    890  H21  DG A  36      81.534  98.319 192.401  1.00  0.00     0.174 HD
ATOM    891  H22  DG A  36      82.243  97.009 191.486  1.00  0.00     0.174 HD
ATOM    892  N1   DG A  36      83.381  95.855 193.361  1.00  0.00    -0.153 N 
ATOM    893  H1   DG A  36      83.469  95.455 192.440  1.00  0.00     0.187 HD
ATOM    894  C6   DG A  36      84.026  95.200 194.403  1.00  0.00     0.292 A 
ATOM    895  O6   DG A  36      84.674  94.172 194.174  1.00  0.00    -0.265 OA
ATOM    896  C5   DG A  36      83.822  95.862 195.642  1.00  0.00     0.173 A 
ATOM    897  N7   DG A  36      84.281  95.552 196.916  1.00  0.00    -0.234 NA
ATOM    898  C8   DG A  36      83.791  96.495 197.673  1.00  0.00     0.214 A 
ATOM    899  C2'  DG A  36      80.868  98.344 197.808  1.00  0.00     0.199 C 
ATOM    900  O2'  DG A  36      80.154  99.535 197.535  1.00  0.00    -0.388 OA
ATOM    901 'HO2  DG A  36      79.393  99.533 198.115  1.00  0.00     0.210 HD
ATOM    902  C3'  DG A  36      80.892  98.052 199.304  1.00  0.00     0.198 C 
ATOM    903  O3'  DG A  36      79.646  98.339 199.935  1.00  0.00    -0.279 OA
ATOM    904  P    DG A  37      78.538  97.182 200.079  1.00  0.00     0.408 P 
ATOM    905  OP1  DG A  37      77.414  97.744 200.871  1.00  0.00    -0.624 OA
ATOM    906  OP2  DG A  37      79.209  95.940 200.541  1.00  0.00    -0.624 OA
ATOM    907  O5'  DG A  37      78.023  96.950 198.588  1.00  0.00    -0.287 OA
ATOM    908  C5'  DG A  37      77.070  97.831 197.994  1.00  0.00     0.216 C 
ATOM    909  C4'  DG A  37      76.956  97.554 196.511  1.00  0.00     0.180 C 
ATOM    910  O4'  DG A  37      78.282  97.358 195.959  1.00  0.00    -0.353 OA
ATOM    911  C1'  DG A  37      78.206  96.480 194.851  1.00  0.00     0.262 C 
ATOM    912  N9   DG A  37      79.166  95.396 195.049  1.00  0.00    -0.293 N 
ATOM    913  C4   DG A  37      79.644  94.544 194.082  1.00  0.00     0.187 A 
ATOM    914  N3   DG A  37      79.310  94.563 192.776  1.00  0.00    -0.044 NA
ATOM    915  C2   DG A  37      79.933  93.619 192.095  1.00  0.00     0.703 A 
ATOM    916  N2   DG A  37      79.718  93.500 190.785  1.00  0.00    -0.233 N 
ATOM    917  H21  DG A  37      79.081  94.136 190.330  1.00  0.00     0.174 HD
ATOM    918  H22  DG A  37      80.183  92.773 190.258  1.00  0.00     0.174 HD
ATOM    919  N1   DG A  37      80.812  92.723 192.647  1.00  0.00    -0.153 N 
ATOM    920  H1   DG A  37      81.230  92.040 192.034  1.00  0.00     0.187 HD
ATOM    921  C6   DG A  37      81.173  92.683 193.989  1.00  0.00     0.292 A 
ATOM    922  O6   DG A  37      81.978  91.831 194.381  1.00  0.00    -0.265 OA
ATOM    923  C5   DG A  37      80.512  93.696 194.737  1.00  0.00     0.173 A 
ATOM    924  N7   DG A  37      80.581  94.008 196.089  1.00  0.00    -0.234 NA
ATOM    925  C8   DG A  37      79.768  95.021 196.225  1.00  0.00     0.214 A 
ATOM    926  C2'  DG A  37      76.760  95.996 194.728  1.00  0.00     0.199 C 
ATOM    927  O2'  DG A  37      76.106  96.786 193.752  1.00  0.00    -0.388 OA
ATOM    928 'HO2  DG A  37      75.170  96.738 193.947  1.00  0.00     0.210 HD
ATOM    929  C3'  DG A  37      76.217  96.281 196.127  1.00  0.00     0.198 C 
ATOM    930  O3'  DG A  37      74.804  96.469 196.126  1.00  0.00    -0.279 OA
ATOM    931  P    DT A  38      73.857  95.446 196.930  1.00  0.00     0.408 P 
ATOM    932  OP1  DT A  38      72.475  95.629 196.414  1.00  0.00    -0.624 OA
ATOM    933  OP2  DT A  38      74.125  95.616 198.380  1.00  0.00    -0.624 OA
ATOM    934  O5'  DT A  38      74.381  94.004 196.495  1.00  0.00    -0.287 OA
ATOM    935  C5'  DT A  38      73.539  93.089 195.790  1.00  0.00     0.216 C 
ATOM    936  C4'  DT A  38      73.752  93.226 194.298  1.00  0.00     0.180 C 
ATOM    937  O4'  DT A  38      75.092  93.748 194.066  1.00  0.00    -0.353 OA
ATOM    938  C1'  DT A  38      75.764  92.946 193.115  1.00  0.00     0.264 C 
ATOM    939  N1   DT A  38      76.772  92.136 193.819  1.00  0.00    -0.280 N 
ATOM    940  C6   DT A  38      77.037  92.327 195.157  1.00  0.00     0.104 A 
ATOM    941  C2   DT A  38      77.453  91.173 193.091  1.00  0.00     0.331 A 
ATOM    942  O2   DT A  38      77.248  90.972 191.909  1.00  0.00    -0.246 OA
ATOM    943  N3   DT A  38      78.382  90.455 193.800  1.00  0.00    -0.275 N 
ATOM    944  H3   DT A  38      78.886  89.746 193.290  1.00  0.00     0.173 HD
ATOM    945  C4   DT A  38      78.698  90.595 195.131  1.00  0.00     0.250 A 
ATOM    946  O4   DT A  38      79.549  89.861 195.632  1.00  0.00    -0.268 OA
ATOM    947  C5   DT A  38      77.955  91.608 195.815  1.00  0.00     0.092 A 
ATOM    948  C2'  DT A  38      74.689  92.140 192.389  1.00  0.00     0.199 C 
ATOM    949  O2'  DT A  38      74.144  92.937 191.354  1.00  0.00    -0.388 OA
ATOM    950 'HO2  DT A  38      73.315  93.293 191.679  1.00  0.00     0.210 HD
ATOM    951  C3'  DT A  38      73.678  91.921 193.510  1.00  0.00     0.198 C 
ATOM    952  O3'  DT A  38      72.361  91.683 193.016  1.00  0.00    -0.279 OA
ATOM    953  P    DT A  39      72.121  90.564 191.883  1.00  0.00     0.408 P 
ATOM    954  OP1  DT A  39      71.992  91.273 190.584  1.00  0.00    -0.624 OA
ATOM    955  OP2  DT A  39      73.166  89.522 192.051  1.00  0.00    -0.624 OA
ATOM    956  O5'  DT A  39      70.696  89.943 192.239  1.00  0.00    -0.287 OA
ATOM    957  C5'  DT A  39      70.558  88.926 193.230  1.00  0.00     0.216 C 
ATOM    958  C4'  DT A  39      70.583  87.559 192.583  1.00  0.00     0.180 C 
ATOM    959  O4'  DT A  39      71.911  87.337 192.028  1.00  0.00    -0.353 OA
ATOM    960  C1'  DT A  39      72.376  86.050 192.386  1.00  0.00     0.264 C 
ATOM    961  N1   DT A  39      73.471  86.205 193.357  1.00  0.00    -0.280 N 
ATOM    962  C6   DT A  39      73.349  87.038 194.449  1.00  0.00     0.104 A 
ATOM    963  C2   DT A  39      74.633  85.491 193.134  1.00  0.00     0.331 A 
ATOM    964  O2   DT A  39      74.780  84.746 192.184  1.00  0.00    -0.246 OA
ATOM    965  N3   DT A  39      75.619  85.685 194.067  1.00  0.00    -0.275 N 
ATOM    966  H3   DT A  39      76.477  85.180 193.914  1.00  0.00     0.173 HD
ATOM    967  C4   DT A  39      75.565  86.500 195.176  1.00  0.00     0.250 A 
ATOM    968  O4   DT A  39      76.539  86.572 195.922  1.00  0.00    -0.268 OA
ATOM    969  C5   DT A  39      74.335  87.203 195.337  1.00  0.00     0.092 A 
ATOM    970  C2'  DT A  39      71.180  85.268 192.924  1.00  0.00     0.199 C 
ATOM    971  O2'  DT A  39      70.517  84.655 191.834  1.00  0.00    -0.388 OA
ATOM    972 'HO2  DT A  39      69.661  85.077 191.752  1.00  0.00     0.210 HD
ATOM    973  C3'  DT A  39      70.336  86.386 193.527  1.00  0.00     0.198 C 
ATOM    974  O3'  DT A  39      68.954  86.043 193.583  1.00  0.00    -0.279 OA
ATOM    975  P    DG A  40      68.461  84.878 194.577  1.00  0.00     0.408 P 
ATOM    976  OP1  DG A  40      69.172  85.064 195.864  1.00  0.00    -0.624 OA
ATOM    977  OP2  DG A  40      68.567  83.581 193.862  1.00  0.00    -0.624 OA
ATOM    978  O5'  DG A  40      66.919  85.203 194.814  1.00  0.00    -0.287 OA
ATOM    979  C5'  DG A  40      65.924  84.774 193.884  1.00  0.00     0.216 C 
ATOM    980  C4'  DG A  40      64.645  84.436 194.610  1.00  0.00     0.180 C 
ATOM    981  O4'  DG A  40      63.687  85.508 194.395  1.00  0.00    -0.353 OA
ATOM    982  C1'  DG A  40      62.393  84.962 194.199  1.00  0.00     0.262 C 
ATOM    983  N9   DG A  40      61.964  85.284 192.842  1.00  0.00    -0.293 N 
ATOM    984  C4   DG A  40      60.733  85.766 192.462  1.00  0.00     0.187 A 
ATOM    985  N3   DG A  40      59.695  86.028 193.285  1.00  0.00    -0.044 NA
ATOM    986  C2   DG A  40      58.645  86.482 192.624  1.00  0.00     0.703 A 
ATOM    987  N2   DG A  40      57.528  86.795 193.288  1.00  0.00    -0.233 N 
ATOM    988  H21  DG A  40      57.505  86.678 194.291  1.00  0.00     0.174 HD
ATOM    989  H22  DG A  40      56.718  87.139 192.795  1.00  0.00     0.174 HD
ATOM    990  N1   DG A  40      58.610  86.666 191.266  1.00  0.00    -0.153 N 
ATOM    991  H1   DG A  40      57.760  87.018 190.858  1.00  0.00     0.187 HD
ATOM    992  C6   DG A  40      59.665  86.404 190.399  1.00  0.00     0.292 A 
ATOM    993  O6   DG A  40      59.525  86.606 189.187  1.00  0.00    -0.265 OA
ATOM    994  C5   DG A  40      60.804  85.914 191.094  1.00  0.00     0.173 A 
ATOM    995  N7   DG A  40      62.053  85.533 190.620  1.00  0.00    -0.234 NA
ATOM    996  C8   DG A  40      62.703  85.169 191.691  1.00  0.00     0.214 A 
ATOM    997  C2'  DG A  40      62.481  83.461 194.476  1.00  0.00     0.199 C 
ATOM    998  O2'  DG A  40      62.235  83.235 195.853  1.00  0.00    -0.388 OA
ATOM    999 'HO2  DG A  40      63.043  82.876 196.221  1.00  0.00     0.210 HD
ATOM   1000  C3'  DG A  40      63.936  83.178 194.125  1.00  0.00     0.198 C 
ATOM   1001  O3'  DG A  40      64.438  82.014 194.779  1.00  0.00    -0.279 OA
ATOM   1002  P    DC A  41      64.746  80.684 193.927  1.00  0.00     0.408 P 
ATOM   1003  OP1  DC A  41      65.056  81.089 192.532  1.00  0.00    -0.624 OA
ATOM   1004  OP2  DC A  41      63.654  79.710 194.180  1.00  0.00    -0.624 OA
ATOM   1005  O5'  DC A  41      66.083  80.111 194.578  1.00  0.00    -0.287 OA
ATOM   1006  C5'  DC A  41      67.331  80.780 194.405  1.00  0.00     0.216 C 
ATOM   1007  C4'  DC A  41      68.432  80.017 195.108  1.00  0.00     0.180 C 
ATOM   1008  O4'  DC A  41      68.405  78.636 194.657  1.00  0.00    -0.353 OA
ATOM   1009  C1'  DC A  41      69.545  78.365 193.863  1.00  0.00     0.264 C 
ATOM   1010  N1   DC A  41      69.103  77.661 192.648  1.00  0.00    -0.278 N 
ATOM   1011  C6   DC A  41      67.901  77.957 192.068  1.00  0.00     0.102 A 
ATOM   1012  C2   DC A  41      69.931  76.680 192.093  1.00  0.00     0.352 A 
ATOM   1013  O2   DC A  41      71.017  76.433 192.637  1.00  0.00    -0.244 OA
ATOM   1014  N3   DC A  41      69.530  76.030 190.979  1.00  0.00    -0.177 NA
ATOM   1015  C4   DC A  41      68.355  76.326 190.421  1.00  0.00     0.128 A 
ATOM   1016  N4   DC A  41      68.002  75.659 189.324  1.00  0.00    -0.384 N 
ATOM   1017  H41  DC A  41      67.122  75.855 188.872  1.00  0.00     0.157 HD
ATOM   1018  H42  DC A  41      68.624  74.957 188.949  1.00  0.00     0.157 HD
ATOM   1019  C5   DC A  41      67.491  77.321 190.963  1.00  0.00     0.067 A 
ATOM   1020  C2'  DC A  41      70.239  79.698 193.585  1.00  0.00     0.199 C 
ATOM   1021  O2'  DC A  41      71.638  79.484 193.539  1.00  0.00    -0.388 OA
ATOM   1022 'HO2  DC A  41      71.850  78.858 194.234  1.00  0.00     0.210 HD
ATOM   1023  C3'  DC A  41      69.848  80.504 194.817  1.00  0.00     0.198 C 
ATOM   1024  O3'  DC A  41      70.722  80.268 195.918  1.00  0.00    -0.279 OA
ATOM   1025  P    DC A  42      70.824  81.348 197.106  1.00  0.00     0.408 P 
ATOM   1026  OP1  DC A  42      70.766  80.592 198.385  1.00  0.00    -0.624 OA
ATOM   1027  OP2  DC A  42      69.843  82.432 196.849  1.00  0.00    -0.624 OA
ATOM   1028  O5'  DC A  42      72.292  81.951 196.949  1.00  0.00    -0.287 OA
ATOM   1029  C5'  DC A  42      73.011  82.443 198.080  1.00  0.00     0.216 C 
ATOM   1030  C4'  DC A  42      73.737  83.719 197.722  1.00  0.00     0.180 C 
ATOM   1031  O4'  DC A  42      72.786  84.642 197.121  1.00  0.00    -0.353 OA
ATOM   1032  C1'  DC A  42      72.549  85.728 197.997  1.00  0.00     0.264 C 
ATOM   1033  N1   DC A  42      71.095  85.955 198.066  1.00  0.00    -0.278 N 
ATOM   1034  C6   DC A  42      70.530  87.030 197.438  1.00  0.00     0.102 A 
ATOM   1035  C2   DC A  42      70.294  85.055 198.783  1.00  0.00     0.352 A 
ATOM   1036  O2   DC A  42      70.829  84.089 199.347  1.00  0.00    -0.244 OA
ATOM   1037  N3   DC A  42      68.960  85.262 198.842  1.00  0.00    -0.177 NA
ATOM   1038  C4   DC A  42      68.419  86.311 198.222  1.00  0.00     0.128 A 
ATOM   1039  N4   DC A  42      67.099  86.465 198.303  1.00  0.00    -0.384 N 
ATOM   1040  H41  DC A  42      66.650  87.244 197.846  1.00  0.00     0.157 HD
ATOM   1041  H42  DC A  42      66.550  85.794 198.820  1.00  0.00     0.157 HD
ATOM   1042  C5   DC A  42      69.209  87.245 197.490  1.00  0.00     0.067 A 
ATOM   1043  C2'  DC A  42      73.196  85.386 199.339  1.00  0.00     0.199 C 
ATOM   1044  O2'  DC A  42      73.688  86.580 199.918  1.00  0.00    -0.388 OA
ATOM   1045 'HO2  DC A  42      74.630  86.596 199.753  1.00  0.00     0.210 HD
ATOM   1046  C3'  DC A  42      74.339  84.477 198.899  1.00  0.00     0.198 C 
ATOM   1047  O3'  DC A  42      75.498  85.214 198.511  1.00  0.00    -0.279 OA
ATOM   1048  P    DG A  43      76.960  84.565 198.696  1.00  0.00     0.408 P 
ATOM   1049  OP1  DG A  43      76.987  83.898 200.022  1.00  0.00    -0.624 OA
ATOM   1050  OP2  DG A  43      77.969  85.609 198.380  1.00  0.00    -0.624 OA
ATOM   1051  O5'  DG A  43      77.028  83.442 197.567  1.00  0.00    -0.287 OA
ATOM   1052  C5'  DG A  43      78.263  83.106 196.932  1.00  0.00     0.216 C 
ATOM   1053  C4'  DG A  43      79.073  82.181 197.812  1.00  0.00     0.180 C 
ATOM   1054  O4'  DG A  43      78.184  81.181 198.385  1.00  0.00    -0.353 OA
ATOM   1055  C1'  DG A  43      78.465  79.912 197.823  1.00  0.00     0.262 C 
ATOM   1056  N9   DG A  43      77.197  79.274 197.482  1.00  0.00    -0.293 N 
ATOM   1057  C4   DG A  43      76.189  79.804 196.711  1.00  0.00     0.187 A 
ATOM   1058  N3   DG A  43      76.193  81.018 196.123  1.00  0.00    -0.044 NA
ATOM   1059  C2   DG A  43      75.079  81.245 195.452  1.00  0.00     0.703 A 
ATOM   1060  N2   DG A  43      74.917  82.405 194.809  1.00  0.00    -0.233 N 
ATOM   1061  H21  DG A  43      75.653  83.095 194.848  1.00  0.00     0.174 HD
ATOM   1062  H22  DG A  43      74.067  82.591 194.299  1.00  0.00     0.174 HD
ATOM   1063  N1   DG A  43      74.042  80.353 195.360  1.00  0.00    -0.153 N 
ATOM   1064  H1   DG A  43      73.232  80.624 194.822  1.00  0.00     0.187 HD
ATOM   1065  C6   DG A  43      74.014  79.097 195.954  1.00  0.00     0.292 A 
ATOM   1066  O6   DG A  43      73.026  78.369 195.806  1.00  0.00    -0.265 OA
ATOM   1067  C5   DG A  43      75.205  78.838 196.682  1.00  0.00     0.173 A 
ATOM   1068  N7   DG A  43      75.587  77.723 197.416  1.00  0.00    -0.234 NA
ATOM   1069  C8   DG A  43      76.773  78.027 197.869  1.00  0.00     0.214 A 
ATOM   1070  C2'  DG A  43      79.392  80.143 196.632  1.00  0.00     0.199 C 
ATOM   1071  O2'  DG A  43      80.257  79.029 196.500  1.00  0.00    -0.388 OA
ATOM   1072 'HO2  DG A  43      81.005  79.315 195.971  1.00  0.00     0.210 HD
ATOM   1073  C3'  DG A  43      80.152  81.380 197.093  1.00  0.00     0.198 C 
ATOM   1074  O3'  DG A  43      81.231  81.058 197.969  1.00  0.00    -0.279 OA
ATOM   1075  P    DA A  44      82.751  81.216 197.465  1.00  0.00     0.408 P 
ATOM   1076  OP1  DA A  44      83.608  80.455 198.409  1.00  0.00    -0.624 OA
ATOM   1077  OP2  DA A  44      83.018  82.658 197.233  1.00  0.00    -0.624 OA
ATOM   1078  O5'  DA A  44      82.778  80.467 196.058  1.00  0.00    -0.287 OA
ATOM   1079  C5'  DA A  44      84.007  80.241 195.364  1.00  0.00     0.216 C 
ATOM   1080  C4'  DA A  44      83.743  79.993 193.894  1.00  0.00     0.180 C 
ATOM   1081  O4'  DA A  44      82.303  79.909 193.688  1.00  0.00    -0.353 OA
ATOM   1082  C1'  DA A  44      81.906  80.859 192.722  1.00  0.00     0.262 C 
ATOM   1083  N9   DA A  44      81.377  82.031 193.419  1.00  0.00    -0.294 N 
ATOM   1084  C4   DA A  44      80.147  82.617 193.236  1.00  0.00     0.167 A 
ATOM   1085  N3   DA A  44      79.180  82.241 192.380  1.00  0.00    -0.222 NA
ATOM   1086  C2   DA A  44      78.122  83.042 192.485  1.00  0.00     0.237 A 
ATOM   1087  N1   DA A  44      77.937  84.100 193.287  1.00  0.00    -0.222 NA
ATOM   1088  C6   DA A  44      78.931  84.453 194.130  1.00  0.00     0.155 A 
ATOM   1089  N6   DA A  44      78.755  85.509 194.923  1.00  0.00    -0.382 N 
ATOM   1090  H61  DA A  44      79.492  85.784 195.555  1.00  0.00     0.157 HD
ATOM   1091  H62  DA A  44      77.888  86.026 194.910  1.00  0.00     0.157 HD
ATOM   1092  C5   DA A  44      80.102  83.681 194.118  1.00  0.00     0.149 A 
ATOM   1093  N7   DA A  44      81.281  83.768 194.844  1.00  0.00    -0.236 NA
ATOM   1094  C8   DA A  44      82.002  82.771 194.393  1.00  0.00     0.214 A 
ATOM   1095  C2'  DA A  44      83.145  81.139 191.882  1.00  0.00     0.199 C 
ATOM   1096  O2'  DA A  44      83.308  80.095 190.941  1.00  0.00    -0.388 OA
ATOM   1097 'HO2  DA A  44      84.250  79.938 190.868  1.00  0.00     0.210 HD
ATOM   1098  C3'  DA A  44      84.231  81.093 192.950  1.00  0.00     0.198 C 
ATOM   1099  O3'  DA A  44      85.510  80.788 192.398  1.00  0.00    -0.279 OA
ATOM   1100  P    DA A  45      86.495  81.981 191.959  1.00  0.00     0.408 P 
ATOM   1101  OP1  DA A  45      87.603  81.373 191.178  1.00  0.00    -0.624 OA
ATOM   1102  OP2  DA A  45      86.806  82.793 193.162  1.00  0.00    -0.624 OA
ATOM   1103  O5'  DA A  45      85.616  82.871 190.969  1.00  0.00    -0.287 OA
ATOM   1104  C5'  DA A  45      85.316  82.424 189.647  1.00  0.00     0.216 C 
ATOM   1105  C4'  DA A  45      84.117  83.166 189.100  1.00  0.00     0.180 C 
ATOM   1106  O4'  DA A  45      83.082  83.229 190.116  1.00  0.00    -0.353 OA
ATOM   1107  C1'  DA A  45      82.322  84.413 189.946  1.00  0.00     0.262 C 
ATOM   1108  N9   DA A  45      82.309  85.139 191.217  1.00  0.00    -0.294 N 
ATOM   1109  C4   DA A  45      81.476  86.178 191.561  1.00  0.00     0.167 A 
ATOM   1110  N3   DA A  45      80.517  86.741 190.804  1.00  0.00    -0.222 NA
ATOM   1111  C2   DA A  45      79.907  87.722 191.468  1.00  0.00     0.237 A 
ATOM   1112  N1   DA A  45      80.130  88.172 192.711  1.00  0.00    -0.222 NA
ATOM   1113  C6   DA A  45      81.101  87.585 193.444  1.00  0.00     0.155 A 
ATOM   1114  N6   DA A  45      81.323  88.031 194.682  1.00  0.00    -0.382 N 
ATOM   1115  H61  DA A  45      82.044  87.608 195.248  1.00  0.00     0.157 HD
ATOM   1116  H62  DA A  45      80.768  88.788 195.057  1.00  0.00     0.157 HD
ATOM   1117  C5   DA A  45      81.822  86.530 192.852  1.00  0.00     0.149 A 
ATOM   1118  N7   DA A  45      82.859  85.732 193.316  1.00  0.00    -0.236 NA
ATOM   1119  C8   DA A  45      83.111  84.927 192.311  1.00  0.00     0.214 A 
ATOM   1120  C2'  DA A  45      82.937  85.201 188.786  1.00  0.00     0.199 C 
ATOM   1121  O2'  DA A  45      82.218  84.893 187.607  1.00  0.00    -0.388 OA
ATOM   1122 'HO2  DA A  45      82.856  84.581 186.964  1.00  0.00     0.210 HD
ATOM   1123  C3'  DA A  45      84.348  84.624 188.735  1.00  0.00     0.198 C 
ATOM   1124  O3'  DA A  45      84.945  84.752 187.447  1.00  0.00    -0.279 OA
ATOM   1125  P    DC A  46      85.743  86.095 187.064  1.00  0.00     0.408 P 
ATOM   1126  OP1  DC A  46      86.277  85.916 185.689  1.00  0.00    -0.624 OA
ATOM   1127  OP2  DC A  46      86.672  86.422 188.175  1.00  0.00    -0.624 OA
ATOM   1128  O5'  DC A  46      84.612  87.216 187.017  1.00  0.00    -0.287 OA
ATOM   1129  C5'  DC A  46      83.555  87.155 186.060  1.00  0.00     0.216 C 
ATOM   1130  C4'  DC A  46      82.716  88.409 186.130  1.00  0.00     0.180 C 
ATOM   1131  O4'  DC A  46      81.880  88.352 187.317  1.00  0.00    -0.353 OA
ATOM   1132  C1'  DC A  46      81.746  89.648 187.870  1.00  0.00     0.264 C 
ATOM   1133  N1   DC A  46      82.268  89.622 189.246  1.00  0.00    -0.278 N 
ATOM   1134  C6   DC A  46      83.252  88.746 189.608  1.00  0.00     0.102 A 
ATOM   1135  C2   DC A  46      81.737  90.511 190.183  1.00  0.00     0.352 A 
ATOM   1136  O2   DC A  46      80.847  91.296 189.828  1.00  0.00    -0.244 OA
ATOM   1137  N3   DC A  46      82.203  90.494 191.451  1.00  0.00    -0.177 NA
ATOM   1138  C4   DC A  46      83.161  89.631 191.796  1.00  0.00     0.128 A 
ATOM   1139  N4   DC A  46      83.587  89.648 193.057  1.00  0.00    -0.384 N 
ATOM   1140  H41  DC A  46      84.310  89.010 193.355  1.00  0.00     0.157 HD
ATOM   1141  H42  DC A  46      83.184  90.302 193.716  1.00  0.00     0.157 HD
ATOM   1142  C5   DC A  46      83.722  88.714 190.862  1.00  0.00     0.067 A 
ATOM   1143  C2'  DC A  46      82.483  90.627 186.954  1.00  0.00     0.199 C 
ATOM   1144  O2'  DC A  46      81.557  91.151 186.020  1.00  0.00    -0.388 OA
ATOM   1145 'HO2  DC A  46      81.796  92.067 185.871  1.00  0.00     0.210 HD
ATOM   1146  C3'  DC A  46      83.496  89.707 186.282  1.00  0.00     0.198 C 
ATOM   1147  O3'  DC A  46      83.933  90.203 185.020  1.00  0.00    -0.279 OA
ATOM   1148  P    DC A  47      85.162  91.237 184.949  1.00  0.00     0.408 P 
ATOM   1149  OP1  DC A  47      85.546  91.373 183.520  1.00  0.00    -0.624 OA
ATOM   1150  OP2  DC A  47      86.183  90.826 185.946  1.00  0.00    -0.624 OA
ATOM   1151  O5'  DC A  47      84.532  92.619 185.429  1.00  0.00    -0.287 OA
ATOM   1152  C5'  DC A  47      83.690  93.383 184.565  1.00  0.00     0.216 C 
ATOM   1153  C4'  DC A  47      83.184  94.613 185.282  1.00  0.00     0.180 C 
ATOM   1154  O4'  DC A  47      82.504  94.207 186.500  1.00  0.00    -0.353 OA
ATOM   1155  C1'  DC A  47      82.757  95.151 187.526  1.00  0.00     0.264 C 
ATOM   1156  N1   DC A  47      83.449  94.464 188.630  1.00  0.00    -0.278 N 
ATOM   1157  C6   DC A  47      84.224  93.363 188.393  1.00  0.00     0.102 A 
ATOM   1158  C2   DC A  47      83.300  94.955 189.931  1.00  0.00     0.352 A 
ATOM   1159  O2   DC A  47      82.593  95.955 190.119  1.00  0.00    -0.244 OA
ATOM   1160  N3   DC A  47      83.931  94.330 190.949  1.00  0.00    -0.177 NA
ATOM   1161  C4   DC A  47      84.683  93.256 190.707  1.00  0.00     0.128 A 
ATOM   1162  N4   DC A  47      85.283  92.671 191.743  1.00  0.00    -0.384 N 
ATOM   1163  H41  DC A  47      85.862  91.856 191.602  1.00  0.00     0.157 HD
ATOM   1164  H42  DC A  47      85.160  93.048 192.672  1.00  0.00     0.157 HD
ATOM   1165  C5   DC A  47      84.853  92.733 189.392  1.00  0.00     0.067 A 
ATOM   1166  C2'  DC A  47      83.567  96.295 186.915  1.00  0.00     0.199 C 
ATOM   1167  O2'  DC A  47      82.666  97.285 186.453  1.00  0.00    -0.388 OA
ATOM   1168 'HO2  DC A  47      83.190  97.952 186.008  1.00  0.00     0.210 HD
ATOM   1169  C3'  DC A  47      84.256  95.584 185.756  1.00  0.00     0.198 C 
ATOM   1170  O3'  DC A  47      84.649  96.481 184.721  1.00  0.00    -0.279 OA
ATOM   1171  P    DT A  48      86.167  97.009 184.652  1.00  0.00     0.408 P 
ATOM   1172  OP1  DT A  48      86.358  97.630 183.317  1.00  0.00    -0.624 OA
ATOM   1173  OP2  DT A  48      87.067  95.909 185.085  1.00  0.00    -0.624 OA
ATOM   1174  O5'  DT A  48      86.225  98.161 185.752  1.00  0.00    -0.287 OA
ATOM   1175  C5'  DT A  48      85.380  99.308 185.660  1.00  0.00     0.216 C 
ATOM   1176  C4'  DT A  48      85.188  99.927 187.025  1.00  0.00     0.180 C 
ATOM   1177  O4'  DT A  48      84.989  98.882 188.004  1.00  0.00    -0.353 OA
ATOM   1178  C1'  DT A  48      85.392  99.355 189.275  1.00  0.00     0.264 C 
ATOM   1179  N1   DT A  48      86.173  98.299 189.935  1.00  0.00    -0.280 N 
ATOM   1180  C6   DT A  48      86.718  97.258 189.218  1.00  0.00     0.104 A 
ATOM   1181  C2   DT A  48      86.343  98.386 191.305  1.00  0.00     0.331 A 
ATOM   1182  O2   DT A  48      85.875  99.287 191.977  1.00  0.00    -0.246 OA
ATOM   1183  N3   DT A  48      87.085  97.376 191.862  1.00  0.00    -0.275 N 
ATOM   1184  H3   DT A  48      87.229  97.421 192.861  1.00  0.00     0.173 HD
ATOM   1185  C4   DT A  48      87.658  96.310 191.209  1.00  0.00     0.250 A 
ATOM   1186  O4   DT A  48      88.293  95.477 191.854  1.00  0.00    -0.268 OA
ATOM   1187  C5   DT A  48      87.434  96.289 189.797  1.00  0.00     0.092 A 
ATOM   1188  C2'  DT A  48      86.171 100.662 189.080  1.00  0.00     0.199 C 
ATOM   1189  O2'  DT A  48      85.352 101.731 189.509  1.00  0.00    -0.388 OA
ATOM   1190 'HO2  DT A  48      84.993 102.151 188.725  1.00  0.00     0.210 HD
ATOM   1191  C3'  DT A  48      86.380 100.702 187.564  1.00  0.00     0.198 C 
ATOM   1192  O3'  DT A  48      86.393 102.032 187.051  1.00  0.00    -0.279 OA
ATOM   1193  P    DC A  49      87.751 102.895 187.088  1.00  0.00     0.408 P 
ATOM   1194  OP1  DC A  49      87.706 103.827 185.934  1.00  0.00    -0.624 OA
ATOM   1195  OP2  DC A  49      88.901 101.967 187.237  1.00  0.00    -0.624 OA
ATOM   1196  O5'  DC A  49      87.628 103.753 188.426  1.00  0.00    -0.287 OA
ATOM   1197  C5'  DC A  49      86.482 104.566 188.675  1.00  0.00     0.216 C 
ATOM   1198  C4'  DC A  49      86.537 105.122 190.078  1.00  0.00     0.180 C 
ATOM   1199  O4'  DC A  49      85.224 105.656 190.412  1.00  0.00    -0.353 OA
ATOM   1200  C1'  DC A  49      84.721 105.003 191.559  1.00  0.00     0.264 C 
ATOM   1201  N1   DC A  49      83.266 104.835 191.401  1.00  0.00    -0.278 N 
ATOM   1202  C6   DC A  49      82.402 105.331 192.336  1.00  0.00     0.102 A 
ATOM   1203  C2   DC A  49      82.777 104.156 190.278  1.00  0.00     0.352 A 
ATOM   1204  O2   DC A  49      83.578 103.722 189.439  1.00  0.00    -0.244 OA
ATOM   1205  N3   DC A  49      81.441 103.993 190.135  1.00  0.00    -0.177 NA
ATOM   1206  C4   DC A  49      80.608 104.479 191.055  1.00  0.00     0.128 A 
ATOM   1207  N4   DC A  49      79.301 104.292 190.870  1.00  0.00    -0.384 N 
ATOM   1208  H41  DC A  49      78.637 104.644 191.542  1.00  0.00     0.157 HD
ATOM   1209  H42  DC A  49      78.983 103.796 190.051  1.00  0.00     0.157 HD
ATOM   1210  C5   DC A  49      81.078 105.178 192.205  1.00  0.00     0.067 A 
ATOM   1211  C2'  DC A  49      85.491 103.692 191.690  1.00  0.00     0.199 C 
ATOM   1212  O2'  DC A  49      85.550 103.340 193.059  1.00  0.00    -0.388 OA
ATOM   1213 'HO2  DC A  49      86.470 103.402 193.316  1.00  0.00     0.210 HD
ATOM   1214  C3'  DC A  49      86.863 104.100 191.165  1.00  0.00     0.198 C 
ATOM   1215  O3'  DC A  49      87.685 104.668 192.184  1.00  0.00    -0.279 OA
ATOM   1216  P    DT A  50      89.285 104.671 192.014  1.00  0.00     0.408 P 
ATOM   1217  OP1  DT A  50      89.826 105.695 192.943  1.00  0.00    -0.624 OA
ATOM   1218  OP2  DT A  50      89.615 104.747 190.568  1.00  0.00    -0.624 OA
ATOM   1219  O5'  DT A  50      89.733 103.238 192.550  1.00  0.00    -0.287 OA
ATOM   1220  C5'  DT A  50      89.306 102.758 193.826  1.00  0.00     0.216 C 
ATOM   1221  C4'  DT A  50      90.501 102.334 194.652  1.00  0.00     0.180 C 
ATOM   1222  O4'  DT A  50      91.132 101.193 194.005  1.00  0.00    -0.353 OA
ATOM   1223  C1'  DT A  50      92.437 101.542 193.582  1.00  0.00     0.264 C 
ATOM   1224  N1   DT A  50      92.662 100.963 192.250  1.00  0.00    -0.280 N 
ATOM   1225  C6   DT A  50      91.738 101.113 191.242  1.00  0.00     0.104 A 
ATOM   1226  C2   DT A  50      93.836 100.258 192.044  1.00  0.00     0.331 A 
ATOM   1227  O2   DT A  50      94.676 100.104 192.912  1.00  0.00    -0.246 OA
ATOM   1228  N3   DT A  50      93.987  99.743 190.782  1.00  0.00    -0.275 N 
ATOM   1229  H3   DT A  50      94.835  99.228 190.602  1.00  0.00     0.173 HD
ATOM   1230  C4   DT A  50      93.107  99.855 189.730  1.00  0.00     0.250 A 
ATOM   1231  O4   DT A  50      93.383  99.329 188.653  1.00  0.00    -0.268 OA
ATOM   1232  C5   DT A  50      91.919 100.596 190.023  1.00  0.00     0.092 A 
ATOM   1233  C2'  DT A  50      92.521 103.066 193.619  1.00  0.00     0.199 C 
ATOM   1234  O2'  DT A  50      93.856 103.441 193.900  1.00  0.00    -0.388 OA
ATOM   1235 'HO2  DT A  50      93.874 103.729 194.814  1.00  0.00     0.210 HD
ATOM   1236  C3'  DT A  50      91.603 103.379 194.794  1.00  0.00     0.198 C 
ATOM   1237  O3'  DT A  50      92.275 103.262 196.045  1.00  0.00    -0.279 OA
ATOM   1238  P    DT A  51      91.703 104.029 197.338  1.00  0.00     0.408 P 
ATOM   1239  OP1  DT A  51      90.229 104.127 197.189  1.00  0.00    -0.624 OA
ATOM   1240  OP2  DT A  51      92.505 105.264 197.534  1.00  0.00    -0.624 OA
ATOM   1241  O5'  DT A  51      92.012 103.029 198.539  1.00  0.00    -0.287 OA
ATOM   1242  C5'  DT A  51      92.122 103.501 199.881  1.00  0.00     0.216 C 
ATOM   1243  C4'  DT A  51      92.975 102.557 200.693  1.00  0.00     0.180 C 
ATOM   1244  O4'  DT A  51      92.289 101.277 200.796  1.00  0.00    -0.353 OA
ATOM   1245  C1'  DT A  51      93.209 100.222 200.586  1.00  0.00     0.264 C 
ATOM   1246  N1   DT A  51      92.906  99.584 199.297  1.00  0.00    -0.280 N 
ATOM   1247  C6   DT A  51      91.880 100.037 198.498  1.00  0.00     0.104 A 
ATOM   1248  C2   DT A  51      93.687  98.509 198.910  1.00  0.00     0.331 A 
ATOM   1249  O2   DT A  51      94.608  98.083 199.582  1.00  0.00    -0.246 OA
ATOM   1250  N3   DT A  51      93.352  97.954 197.703  1.00  0.00    -0.275 N 
ATOM   1251  H3   DT A  51      93.913  97.169 197.406  1.00  0.00     0.173 HD
ATOM   1252  C4   DT A  51      92.345  98.354 196.857  1.00  0.00     0.250 A 
ATOM   1253  O4   DT A  51      92.155  97.737 195.810  1.00  0.00    -0.268 OA
ATOM   1254  C5   DT A  51      91.587  99.473 197.322  1.00  0.00     0.092 A 
ATOM   1255  C2'  DT A  51      94.606 100.833 200.651  1.00  0.00     0.199 C 
ATOM   1256  O2'  DT A  51      95.018 100.892 202.003  1.00  0.00    -0.388 OA
ATOM   1257 'HO2  DT A  51      95.962 100.731 202.009  1.00  0.00     0.210 HD
ATOM   1258  C3'  DT A  51      94.333 102.222 200.089  1.00  0.00     0.198 C 
ATOM   1259  O3'  DT A  51      95.327 103.171 200.464  1.00  0.00    -0.279 OA
ATOM   1260  P    DC A  52      96.538 103.501 199.457  1.00  0.00     0.408 P 
ATOM   1261  OP1  DC A  52      97.194 104.743 199.940  1.00  0.00    -0.624 OA
ATOM   1262  OP2  DC A  52      96.029 103.434 198.064  1.00  0.00    -0.624 OA
ATOM   1263  O5'  DC A  52      97.554 102.291 199.666  1.00  0.00    -0.287 OA
ATOM   1264  C5'  DC A  52      98.281 102.142 200.884  1.00  0.00     0.216 C 
ATOM   1265  C4'  DC A  52      99.038 100.833 200.885  1.00  0.00     0.180 C 
ATOM   1266  O4'  DC A  52      98.089  99.735 200.752  1.00  0.00    -0.353 OA
ATOM   1267  C1'  DC A  52      98.593  98.775 199.838  1.00  0.00     0.264 C 
ATOM   1268  N1   DC A  52      97.768  98.816 198.618  1.00  0.00    -0.278 N 
ATOM   1269  C6   DC A  52      96.961  99.889 198.358  1.00  0.00     0.102 A 
ATOM   1270  C2   DC A  52      97.816  97.739 197.726  1.00  0.00     0.352 A 
ATOM   1271  O2   DC A  52      98.560  96.780 197.979  1.00  0.00    -0.244 OA
ATOM   1272  N3   DC A  52      97.053  97.772 196.610  1.00  0.00    -0.177 NA
ATOM   1273  C4   DC A  52      96.263  98.821 196.373  1.00  0.00     0.128 A 
ATOM   1274  N4   DC A  52      95.524  98.806 195.265  1.00  0.00    -0.384 N 
ATOM   1275  H41  DC A  52      94.911  99.579 195.046  1.00  0.00     0.157 HD
ATOM   1276  H42  DC A  52      95.576  98.019 194.634  1.00  0.00     0.157 HD
ATOM   1277  C5   DC A  52      96.197  99.931 197.261  1.00  0.00     0.067 A 
ATOM   1278  C2'  DC A  52     100.061  99.121 199.604  1.00  0.00     0.199 C 
ATOM   1279  O2'  DC A  52     100.837  98.540 200.636  1.00  0.00    -0.388 OA
ATOM   1280 'HO2  DC A  52     100.807  99.134 201.387  1.00  0.00     0.210 HD
ATOM   1281  C3'  DC A  52     100.014 100.637 199.731  1.00  0.00     0.198 C 
ATOM   1282  O3'  DC A  52     101.289 101.207 200.018  1.00  0.00    -0.279 OA
ATOM   1283  P    DC A  53     102.134 101.910 198.842  1.00  0.00     0.408 P 
ATOM   1284  OP1  DC A  53     103.274 102.617 199.477  1.00  0.00    -0.624 OA
ATOM   1285  OP2  DC A  53     101.194 102.664 197.971  1.00  0.00    -0.624 OA
ATOM   1286  O5'  DC A  53     102.715 100.689 198.000  1.00  0.00    -0.287 OA
ATOM   1287  C5'  DC A  53     103.570  99.720 198.604  1.00  0.00     0.216 C 
ATOM   1288  C4'  DC A  53     103.741  98.531 197.688  1.00  0.00     0.180 C 
ATOM   1289  O4'  DC A  53     102.463  97.849 197.560  1.00  0.00    -0.353 OA
ATOM   1290  C1'  DC A  53     102.285  97.410 196.225  1.00  0.00     0.264 C 
ATOM   1291  N1   DC A  53     101.132  98.120 195.647  1.00  0.00    -0.278 N 
ATOM   1292  C6   DC A  53     100.669  99.279 196.205  1.00  0.00     0.102 A 
ATOM   1293  C2   DC A  53     100.514  97.589 194.514  1.00  0.00     0.352 A 
ATOM   1294  O2   DC A  53     100.957  96.540 194.023  1.00  0.00    -0.244 OA
ATOM   1295  N3   DC A  53      99.451  98.227 193.980  1.00  0.00    -0.177 NA
ATOM   1296  C4   DC A  53      99.001  99.353 194.535  1.00  0.00     0.128 A 
ATOM   1297  N4   DC A  53      97.947  99.943 193.973  1.00  0.00    -0.384 N 
ATOM   1298  H41  DC A  53      97.570 100.798 194.358  1.00  0.00     0.157 HD
ATOM   1299  H42  DC A  53      97.519  99.528 193.158  1.00  0.00     0.157 HD
ATOM   1300  C5   DC A  53      99.613  99.921 195.689  1.00  0.00     0.067 A 
ATOM   1301  C2'  DC A  53     103.595  97.666 195.482  1.00  0.00     0.199 C 
ATOM   1302  O2'  DC A  53     104.430  96.533 195.625  1.00  0.00    -0.388 OA
ATOM   1303 'HO2  DC A  53     105.269  96.847 195.968  1.00  0.00     0.210 HD
ATOM   1304  C3'  DC A  53     104.143  98.859 196.255  1.00  0.00     0.198 C 
ATOM   1305  O3'  DC A  53     105.556  98.993 196.120  1.00  0.00    -0.279 OA
ATOM   1306  P    DC A  54     106.163  99.866 194.912  1.00  0.00     0.408 P 
ATOM   1307  OP1  DC A  54     107.589 100.129 195.231  1.00  0.00    -0.624 OA
ATOM   1308  OP2  DC A  54     105.249 101.004 194.643  1.00  0.00    -0.624 OA
ATOM   1309  O5'  DC A  54     106.107  98.883 193.658  1.00  0.00    -0.287 OA
ATOM   1310  C5'  DC A  54     106.895  97.694 193.618  1.00  0.00     0.216 C 
ATOM   1311  C4'  DC A  54     106.724  97.000 192.286  1.00  0.00     0.180 C 
ATOM   1312  O4'  DC A  54     105.372  96.465 192.207  1.00  0.00    -0.353 OA
ATOM   1313  C1'  DC A  54     104.837  96.705 190.917  1.00  0.00     0.264 C 
ATOM   1314  N1   DC A  54     103.745  97.685 191.041  1.00  0.00    -0.278 N 
ATOM   1315  C6   DC A  54     103.676  98.523 192.119  1.00  0.00     0.102 A 
ATOM   1316  C2   DC A  54     102.773  97.745 190.039  1.00  0.00     0.352 A 
ATOM   1317  O2   DC A  54     102.863  96.982 189.068  1.00  0.00    -0.244 OA
ATOM   1318  N3   DC A  54     101.762  98.634 190.153  1.00  0.00    -0.177 NA
ATOM   1319  C4   DC A  54     101.700  99.442 191.213  1.00  0.00     0.128 A 
ATOM   1320  N4   DC A  54     100.680 100.297 191.284  1.00  0.00    -0.384 N 
ATOM   1321  H41  DC A  54     100.595 100.927 192.069  1.00  0.00     0.157 HD
ATOM   1322  H42  DC A  54      99.989 100.311 190.547  1.00  0.00     0.157 HD
ATOM   1323  C5   DC A  54     102.679  99.407 192.246  1.00  0.00     0.067 A 
ATOM   1324  C2'  DC A  54     105.992  97.174 190.035  1.00  0.00     0.199 C 
ATOM   1325  O2'  DC A  54     106.651  96.039 189.508  1.00  0.00    -0.388 OA
ATOM   1326 'HO2  DC A  54     107.585  96.152 189.686  1.00  0.00     0.210 HD
ATOM   1327  C3'  DC A  54     106.861  97.892 191.059  1.00  0.00     0.198 C 
ATOM   1328  O3'  DC A  54     108.217  98.006 190.639  1.00  0.00    -0.279 OA
ATOM   1329  P    DC A  55     108.686  99.288 189.788  1.00  0.00     0.408 P 
ATOM   1330  OP1  DC A  55     110.157  99.195 189.617  1.00  0.00    -0.624 OA
ATOM   1331  OP2  DC A  55     108.093 100.504 190.402  1.00  0.00    -0.624 OA
ATOM   1332  O5'  DC A  55     108.004  99.075 188.362  1.00  0.00    -0.287 OA
ATOM   1333  C5'  DC A  55     108.342  97.955 187.546  1.00  0.00     0.216 C 
ATOM   1334  C4'  DC A  55     107.485  97.939 186.302  1.00  0.00     0.180 C 
ATOM   1335  O4'  DC A  55     106.103  97.698 186.683  1.00  0.00    -0.353 OA
ATOM   1336  C1'  DC A  55     105.240  98.477 185.872  1.00  0.00     0.264 C 
ATOM   1337  N1   DC A  55     104.516  99.422 186.740  1.00  0.00    -0.278 N 
ATOM   1338  C6   DC A  55     105.045  99.824 187.935  1.00  0.00     0.102 A 
ATOM   1339  C2   DC A  55     103.271  99.900 186.324  1.00  0.00     0.352 A 
ATOM   1340  O2   DC A  55     102.816  99.528 185.233  1.00  0.00    -0.244 OA
ATOM   1341  N3   DC A  55     102.593 100.757 187.119  1.00  0.00    -0.177 NA
ATOM   1342  C4   DC A  55     103.114 101.136 188.286  1.00  0.00     0.128 A 
ATOM   1343  N4   DC A  55     102.404 101.976 189.039  1.00  0.00    -0.384 N 
ATOM   1344  H41  DC A  55     102.758 102.290 189.929  1.00  0.00     0.157 HD
ATOM   1345  H42  DC A  55     101.504 102.298 188.710  1.00  0.00     0.157 HD
ATOM   1346  C5   DC A  55     104.382 100.669 188.734  1.00  0.00     0.067 A 
ATOM   1347  C2'  DC A  55     106.100  99.156 184.805  1.00  0.00     0.199 C 
ATOM   1348  O2'  DC A  55     106.174  98.305 183.676  1.00  0.00    -0.388 OA
ATOM   1349 'HO2  DC A  55     107.060  97.941 183.659  1.00  0.00     0.210 HD
ATOM   1350  C3'  DC A  55     107.444  99.243 185.517  1.00  0.00     0.198 C 
ATOM   1351  O3'  DC A  55     108.536  99.342 184.608  1.00  0.00    -0.279 OA
ATOM   1352  P    DC A  56     109.039 100.789 184.116  1.00  0.00     0.408 P 
ATOM   1353  OP1  DC A  56     110.263 100.582 183.301  1.00  0.00    -0.624 OA
ATOM   1354  OP2  DC A  56     109.082 101.698 185.289  1.00  0.00    -0.624 OA
ATOM   1355  O5'  DC A  56     107.878 101.293 183.146  1.00  0.00    -0.287 OA
ATOM   1356  C5'  DC A  56     107.537 100.564 181.966  1.00  0.00     0.216 C 
ATOM   1357  C4'  DC A  56     106.470 101.300 181.191  1.00  0.00     0.180 C 
ATOM   1358  O4'  DC A  56     105.190 101.087 181.846  1.00  0.00    -0.353 OA
ATOM   1359  C1'  DC A  56     104.432 102.282 181.814  1.00  0.00     0.264 C 
ATOM   1360  N1   DC A  56     104.206 102.726 183.199  1.00  0.00    -0.278 N 
ATOM   1361  C6   DC A  56     105.154 102.522 184.164  1.00  0.00     0.102 A 
ATOM   1362  C2   DC A  56     103.004 103.362 183.515  1.00  0.00     0.352 A 
ATOM   1363  O2   DC A  56     102.161 103.533 182.622  1.00  0.00    -0.244 OA
ATOM   1364  N3   DC A  56     102.789 103.776 184.782  1.00  0.00    -0.177 NA
ATOM   1365  C4   DC A  56     103.717 103.572 185.717  1.00  0.00     0.128 A 
ATOM   1366  N4   DC A  56     103.458 103.997 186.953  1.00  0.00    -0.384 N 
ATOM   1367  H41  DC A  56     104.132 103.865 187.692  1.00  0.00     0.157 HD
ATOM   1368  H42  DC A  56     102.577 104.456 187.144  1.00  0.00     0.157 HD
ATOM   1369  C5   DC A  56     104.952 102.924 185.425  1.00  0.00     0.067 A 
ATOM   1370  C2'  DC A  56     105.195 103.295 180.961  1.00  0.00     0.198 C 
ATOM   1371  O2'  DC A  56     104.768 103.171 179.617  1.00  0.00    -0.388 OA
ATOM   1372 'HO2  DC A  56     105.538 103.307 179.064  1.00  0.00     0.210 HD
ATOM   1373  C3'  DC A  56     106.631 102.813 181.133  1.00  0.00     0.182 C 
ATOM   1374  O3'  DC A  56     107.478 103.227 180.056  1.00  0.00    -0.390 OA
ATOM   1375 'HO3  DC A  56     108.310 102.758 180.152  1.00  0.00     0.210 HD
ENDROOT
TORSDOF 434
ENDMDL
