MODEL 1
REMARK VINA RESULT:     -21.6      0.000      0.000
REMARK  0 active torsions:
REMARK  status: ('A' for Active; 'I' for Inactive)
REMARK       I    between atoms: O5'_2  and  C5'_3 
REMARK       I    between atoms: C5'_3  and  C4'_4 
REMARK       I    between atoms: C1'_6  and  N9_7 
REMARK       I    between atoms: C2_10  and  N2_11 
REMARK       I    between atoms: C2'_21  and  O2'_22 
REMARK       I    between atoms: C3'_24  and  O3'_25 
REMARK       I    between atoms: O3'_25  and  P_26 
REMARK       I    between atoms: P_26  and  O5'_29 
REMARK       I    between atoms: O5'_29  and  C5'_30 
REMARK       I    between atoms: C5'_30  and  C4'_31 
REMARK       I    between atoms: C1'_33  and  N9_34 
REMARK       I    between atoms: C2_37  and  N2_38 
REMARK       I    between atoms: C2'_48  and  O2'_49 
REMARK       I    between atoms: C3'_51  and  O3'_52 
REMARK       I    between atoms: O3'_52  and  P_53 
REMARK       I    between atoms: P_53  and  O5'_56 
REMARK       I    between atoms: O5'_56  and  C5'_57 
REMARK       I    between atoms: C5'_57  and  C4'_58 
REMARK       I    between atoms: C1'_60  and  N9_61 
REMARK       I    between atoms: C2_64  and  N2_65 
REMARK       I    between atoms: C2'_75  and  O2'_76 
REMARK       I    between atoms: C3'_78  and  O3'_79 
REMARK       I    between atoms: O3'_79  and  P_80 
REMARK       I    between atoms: P_80  and  O5'_83 
REMARK       I    between atoms: O5'_83  and  C5'_84 
REMARK       I    between atoms: C5'_84  and  C4'_85 
REMARK       I    between atoms: C1'_87  and  N1_88 
REMARK       I    between atoms: C4_93  and  N4_94 
REMARK       I    between atoms: C2'_98  and  O2'_99 
REMARK       I    between atoms: C3'_101  and  O3'_102 
REMARK       I    between atoms: O3'_102  and  P_103 
REMARK       I    between atoms: P_103  and  O5'_106 
REMARK       I    between atoms: O5'_106  and  C5'_107 
REMARK       I    between atoms: C5'_107  and  C4'_108 
REMARK       I    between atoms: C1'_110  and  N9_111 
REMARK       I    between atoms: C6_116  and  N6_117 
REMARK       I    between atoms: C2'_123  and  O2'_124 
REMARK       I    between atoms: C3'_126  and  O3'_127 
REMARK       I    between atoms: O3'_127  and  P_128 
REMARK       I    between atoms: P_128  and  O5'_131 
REMARK       I    between atoms: O5'_131  and  C5'_132 
REMARK       I    between atoms: C5'_132  and  C4'_133 
REMARK       I    between atoms: C1'_135  and  N1_136 
REMARK       I    between atoms: C2'_145  and  O2'_146 
REMARK       I    between atoms: C3'_148  and  O3'_149 
REMARK       I    between atoms: O3'_149  and  P_150 
REMARK       I    between atoms: P_150  and  O5'_153 
REMARK       I    between atoms: O5'_153  and  C5'_154 
REMARK       I    between atoms: C5'_154  and  C4'_155 
REMARK       I    between atoms: C1'_157  and  N9_158 
REMARK       I    between atoms: C2_161  and  N2_162 
REMARK       I    between atoms: C2'_172  and  O2'_173 
REMARK       I    between atoms: C3'_175  and  O3'_176 
REMARK       I    between atoms: O3'_176  and  P_177 
REMARK       I    between atoms: P_177  and  O5'_180 
REMARK       I    between atoms: O5'_180  and  C5'_181 
REMARK       I    between atoms: C5'_181  and  C4'_182 
REMARK       I    between atoms: C1'_184  and  N1_185 
REMARK       I    between atoms: C2'_194  and  O2'_195 
REMARK       I    between atoms: C3'_197  and  O3'_198 
REMARK       I    between atoms: O3'_198  and  P_199 
REMARK       I    between atoms: P_199  and  O5'_202 
REMARK       I    between atoms: O5'_202  and  C5'_203 
REMARK       I    between atoms: C5'_203  and  C4'_204 
REMARK       I    between atoms: C1'_206  and  N9_207 
REMARK       I    between atoms: C2_210  and  N2_211 
REMARK       I    between atoms: C2'_221  and  O2'_222 
REMARK       I    between atoms: C3'_224  and  O3'_225 
REMARK       I    between atoms: O3'_225  and  P_226 
REMARK       I    between atoms: P_226  and  O5'_229 
REMARK       I    between atoms: O5'_229  and  C5'_230 
REMARK       I    between atoms: C5'_230  and  C4'_231 
REMARK       I    between atoms: C1'_233  and  N9_234 
REMARK       I    between atoms: C2_237  and  N2_238 
REMARK       I    between atoms: C2'_248  and  O2'_249 
REMARK       I    between atoms: C3'_251  and  O3'_252 
REMARK       I    between atoms: O3'_252  and  P_253 
REMARK       I    between atoms: P_253  and  O5'_256 
REMARK       I    between atoms: O5'_256  and  C5'_257 
REMARK       I    between atoms: C5'_257  and  C4'_258 
REMARK       I    between atoms: C1'_260  and  N1_261 
REMARK       I    between atoms: C2'_270  and  O2'_271 
REMARK       I    between atoms: C3'_273  and  O3'_274 
REMARK       I    between atoms: O3'_274  and  P_275 
REMARK       I    between atoms: P_275  and  O5'_278 
REMARK       I    between atoms: O5'_278  and  C5'_279 
REMARK       I    between atoms: C5'_279  and  C4'_280 
REMARK       I    between atoms: C1'_282  and  N9_283 
REMARK       I    between atoms: C2_286  and  N2_287 
REMARK       I    between atoms: C2'_297  and  O2'_298 
REMARK       I    between atoms: C3'_300  and  O3'_301 
REMARK       I    between atoms: O3'_301  and  P_302 
REMARK       I    between atoms: P_302  and  O5'_305 
REMARK       I    between atoms: O5'_305  and  C5'_306 
REMARK       I    between atoms: C5'_306  and  C4'_307 
REMARK       I    between atoms: C1'_309  and  N1_310 
REMARK       I    between atoms: C2'_319  and  O2'_320 
REMARK       I    between atoms: C3'_322  and  O3'_323 
REMARK       I    between atoms: O3'_323  and  P_324 
REMARK       I    between atoms: P_324  and  O5'_327 
REMARK       I    between atoms: O5'_327  and  C5'_328 
REMARK       I    between atoms: C5'_328  and  C4'_329 
REMARK       I    between atoms: C1'_331  and  N9_332 
REMARK       I    between atoms: C6_337  and  N6_338 
REMARK       I    between atoms: C2'_344  and  O2'_345 
REMARK       I    between atoms: C3'_347  and  O3'_348 
REMARK       I    between atoms: O3'_348  and  P_349 
REMARK       I    between atoms: P_349  and  O5'_352 
REMARK       I    between atoms: O5'_352  and  C5'_353 
REMARK       I    between atoms: C5'_353  and  C4'_354 
REMARK       I    between atoms: C1'_356  and  N9_357 
REMARK       I    between atoms: C2_360  and  N2_361 
REMARK       I    between atoms: C2'_371  and  O2'_372 
REMARK       I    between atoms: C3'_374  and  O3'_375 
REMARK       I    between atoms: O3'_375  and  P_376 
REMARK       I    between atoms: P_376  and  O5'_379 
REMARK       I    between atoms: O5'_379  and  C5'_380 
REMARK       I    between atoms: C5'_380  and  C4'_381 
REMARK       I    between atoms: C1'_383  and  N9_384 
REMARK       I    between atoms: C6_389  and  N6_390 
REMARK       I    between atoms: C2'_396  and  O2'_397 
REMARK       I    between atoms: C3'_399  and  O3'_400 
REMARK       I    between atoms: O3'_400  and  P_401 
REMARK       I    between atoms: P_401  and  O5'_404 
REMARK       I    between atoms: O5'_404  and  C5'_405 
REMARK       I    between atoms: C5'_405  and  C4'_406 
REMARK       I    between atoms: C1'_408  and  N1_409 
REMARK       I    between atoms: C2'_418  and  O2'_419 
REMARK       I    between atoms: C3'_421  and  O3'_422 
REMARK       I    between atoms: O3'_422  and  P_423 
REMARK       I    between atoms: P_423  and  O5'_426 
REMARK       I    between atoms: O5'_426  and  C5'_427 
REMARK       I    between atoms: C5'_427  and  C4'_428 
REMARK       I    between atoms: C1'_430  and  N9_431 
REMARK       I    between atoms: C2_434  and  N2_435 
REMARK       I    between atoms: C2'_445  and  O2'_446 
REMARK       I    between atoms: C3'_448  and  O3'_449 
REMARK       I    between atoms: O3'_449  and  P_450 
REMARK       I    between atoms: P_450  and  O5'_453 
REMARK       I    between atoms: O5'_453  and  C5'_454 
REMARK       I    between atoms: C5'_454  and  C4'_455 
REMARK       I    between atoms: C1'_457  and  N9_458 
REMARK       I    between atoms: C2_461  and  N2_462 
REMARK       I    between atoms: C2'_472  and  O2'_473 
REMARK       I    between atoms: C3'_475  and  O3'_476 
REMARK       I    between atoms: O3'_476  and  P_477 
REMARK       I    between atoms: P_477  and  O5'_480 
REMARK       I    between atoms: O5'_480  and  C5'_481 
REMARK       I    between atoms: C5'_481  and  C4'_482 
REMARK       I    between atoms: C1'_484  and  N1_485 
REMARK       I    between atoms: C2'_494  and  O2'_495 
REMARK       I    between atoms: C3'_497  and  O3'_498 
REMARK       I    between atoms: O3'_498  and  P_499 
REMARK       I    between atoms: P_499  and  O5'_502 
REMARK       I    between atoms: O5'_502  and  C5'_503 
REMARK       I    between atoms: C5'_503  and  C4'_504 
REMARK       I    between atoms: C1'_506  and  N1_507 
REMARK       I    between atoms: C2'_516  and  O2'_517 
REMARK       I    between atoms: C3'_519  and  O3'_520 
REMARK       I    between atoms: O3'_520  and  P_521 
REMARK       I    between atoms: P_521  and  O5'_524 
REMARK       I    between atoms: O5'_524  and  C5'_525 
REMARK       I    between atoms: C5'_525  and  C4'_526 
REMARK       I    between atoms: C1'_528  and  N9_529 
REMARK       I    between atoms: C6_534  and  N6_535 
REMARK       I    between atoms: C2'_541  and  O2'_542 
REMARK       I    between atoms: C3'_544  and  O3'_545 
REMARK       I    between atoms: O3'_545  and  P_546 
REMARK       I    between atoms: P_546  and  O5'_549 
REMARK       I    between atoms: O5'_549  and  C5'_550 
REMARK       I    between atoms: C5'_550  and  C4'_551 
REMARK       I    between atoms: C1'_553  and  N1_554 
REMARK       I    between atoms: C2'_563  and  O2'_564 
REMARK       I    between atoms: C3'_566  and  O3'_567 
REMARK       I    between atoms: O3'_567  and  P_568 
REMARK       I    between atoms: P_568  and  O5'_571 
REMARK       I    between atoms: O5'_571  and  C5'_572 
REMARK       I    between atoms: C5'_572  and  C4'_573 
REMARK       I    between atoms: C1'_575  and  N1_576 
REMARK       I    between atoms: C4_581  and  N4_582 
REMARK       I    between atoms: C2'_586  and  O2'_587 
REMARK       I    between atoms: C3'_589  and  O3'_590 
REMARK       I    between atoms: O3'_590  and  P_591 
REMARK       I    between atoms: P_591  and  O5'_594 
REMARK       I    between atoms: O5'_594  and  C5'_595 
REMARK       I    between atoms: C5'_595  and  C4'_596 
REMARK       I    between atoms: C1'_598  and  N9_599 
REMARK       I    between atoms: C6_604  and  N6_605 
REMARK       I    between atoms: C2'_611  and  O2'_612 
REMARK       I    between atoms: C3'_614  and  O3'_615 
REMARK       I    between atoms: O3'_615  and  P_616 
REMARK       I    between atoms: P_616  and  O5'_619 
REMARK       I    between atoms: O5'_619  and  C5'_620 
REMARK       I    between atoms: C5'_620  and  C4'_621 
REMARK       I    between atoms: C1'_623  and  N1_624 
REMARK       I    between atoms: C4_629  and  N4_630 
REMARK       I    between atoms: C2'_634  and  O2'_635 
REMARK       I    between atoms: C3'_637  and  O3'_638 
REMARK       I    between atoms: O3'_638  and  P_639 
REMARK       I    between atoms: P_639  and  O5'_642 
REMARK       I    between atoms: O5'_642  and  C5'_643 
REMARK       I    between atoms: C5'_643  and  C4'_644 
REMARK       I    between atoms: C1'_646  and  N9_647 
REMARK       I    between atoms: C2_650  and  N2_651 
REMARK       I    between atoms: C2'_661  and  O2'_662 
REMARK       I    between atoms: C3'_664  and  O3'_665 
REMARK       I    between atoms: O3'_665  and  P_666 
REMARK       I    between atoms: P_666  and  O5'_669 
REMARK       I    between atoms: O5'_669  and  C5'_670 
REMARK       I    between atoms: C5'_670  and  C4'_671 
REMARK       I    between atoms: C1'_673  and  N1_674 
REMARK       I    between atoms: C4_679  and  N4_680 
REMARK       I    between atoms: C2'_684  and  O2'_685 
REMARK       I    between atoms: C3'_687  and  O3'_688 
REMARK       I    between atoms: O3'_688  and  P_689 
REMARK       I    between atoms: P_689  and  O5'_692 
REMARK       I    between atoms: O5'_692  and  C5'_693 
REMARK       I    between atoms: C5'_693  and  C4'_694 
REMARK       I    between atoms: C1'_696  and  N1_697 
REMARK       I    between atoms: C2'_706  and  O2'_707 
REMARK       I    between atoms: C3'_709  and  O3'_710 
REMARK       I    between atoms: O3'_710  and  P_711 
REMARK       I    between atoms: P_711  and  O5'_714 
REMARK       I    between atoms: O5'_714  and  C5'_715 
REMARK       I    between atoms: C5'_715  and  C4'_716 
REMARK       I    between atoms: C1'_718  and  N1_719 
REMARK       I    between atoms: C2'_728  and  O2'_729 
REMARK       I    between atoms: C3'_731  and  O3'_732 
REMARK       I    between atoms: O3'_732  and  P_733 
REMARK       I    between atoms: P_733  and  O5'_736 
REMARK       I    between atoms: O5'_736  and  C5'_737 
REMARK       I    between atoms: C5'_737  and  C4'_738 
REMARK       I    between atoms: C1'_740  and  N1_741 
REMARK       I    between atoms: C4_746  and  N4_747 
REMARK       I    between atoms: C2'_751  and  O2'_752 
REMARK       I    between atoms: C3'_754  and  O3'_755 
REMARK       I    between atoms: O3'_755  and  P_756 
REMARK       I    between atoms: P_756  and  O5'_759 
REMARK       I    between atoms: O5'_759  and  C5'_760 
REMARK       I    between atoms: C5'_760  and  C4'_761 
REMARK       I    between atoms: C1'_763  and  N1_764 
REMARK       I    between atoms: C4_769  and  N4_770 
REMARK       I    between atoms: C2'_774  and  O2'_775 
REMARK       I    between atoms: C3'_777  and  O3'_778 
REMARK       I    between atoms: O3'_778  and  P_779 
REMARK       I    between atoms: P_779  and  O5'_782 
REMARK       I    between atoms: O5'_782  and  C5'_783 
REMARK       I    between atoms: C5'_783  and  C4'_784 
REMARK       I    between atoms: C1'_786  and  N1_787 
REMARK       I    between atoms: C2'_796  and  O2'_797 
REMARK       I    between atoms: C3'_799  and  O3'_800 
REMARK       I    between atoms: O3'_800  and  P_801 
REMARK       I    between atoms: P_801  and  O5'_804 
REMARK       I    between atoms: O5'_804  and  C5'_805 
REMARK       I    between atoms: C5'_805  and  C4'_806 
REMARK       I    between atoms: C1'_808  and  N1_809 
REMARK       I    between atoms: C2'_818  and  O2'_819 
REMARK       I    between atoms: C3'_821  and  O3'_822 
REMARK       I    between atoms: O3'_822  and  P_823 
REMARK       I    between atoms: P_823  and  O5'_826 
REMARK       I    between atoms: O5'_826  and  C5'_827 
REMARK       I    between atoms: C5'_827  and  C4'_828 
REMARK       I    between atoms: C1'_830  and  N9_831 
REMARK       I    between atoms: C6_836  and  N6_837 
REMARK       I    between atoms: C2'_843  and  O2'_844 
REMARK       I    between atoms: C3'_846  and  O3'_847 
REMARK       I    between atoms: O3'_847  and  P_848 
REMARK       I    between atoms: P_848  and  O5'_851 
REMARK       I    between atoms: O5'_851  and  C5'_852 
REMARK       I    between atoms: C5'_852  and  C4'_853 
REMARK       I    between atoms: C1'_855  and  N9_856 
REMARK       I    between atoms: C2_859  and  N2_860 
REMARK       I    between atoms: C2'_870  and  O2'_871 
REMARK       I    between atoms: C3'_873  and  O3'_874 
REMARK       I    between atoms: O3'_874  and  P_875 
REMARK       I    between atoms: P_875  and  O5'_878 
REMARK       I    between atoms: O5'_878  and  C5'_879 
REMARK       I    between atoms: C5'_879  and  C4'_880 
REMARK       I    between atoms: C1'_882  and  N1_883 
REMARK       I    between atoms: C4_888  and  N4_889 
REMARK       I    between atoms: C2'_893  and  O2'_894 
REMARK       I    between atoms: C3'_896  and  O3'_897 
REMARK       I    between atoms: O3'_897  and  P_898 
REMARK       I    between atoms: P_898  and  O5'_901 
REMARK       I    between atoms: O5'_901  and  C5'_902 
REMARK       I    between atoms: C5'_902  and  C4'_903 
REMARK       I    between atoms: C1'_905  and  N9_906 
REMARK       I    between atoms: C6_911  and  N6_912 
REMARK       I    between atoms: C2'_918  and  O2'_919 
REMARK       I    between atoms: C3'_921  and  O3'_922 
REMARK       I    between atoms: O3'_922  and  P_923 
REMARK       I    between atoms: P_923  and  O5'_926 
REMARK       I    between atoms: O5'_926  and  C5'_927 
REMARK       I    between atoms: C5'_927  and  C4'_928 
REMARK       I    between atoms: C1'_930  and  N1_931 
REMARK       I    between atoms: C2'_940  and  O2'_941 
REMARK       I    between atoms: C3'_943  and  O3'_944 
REMARK       I    between atoms: O3'_944  and  P_945 
REMARK       I    between atoms: P_945  and  O5'_948 
REMARK       I    between atoms: O5'_948  and  C5'_949 
REMARK       I    between atoms: C5'_949  and  C4'_950 
REMARK       I    between atoms: C1'_952  and  N9_953 
REMARK       I    between atoms: C2_956  and  N2_957 
REMARK       I    between atoms: C2'_967  and  O2'_968 
REMARK       I    between atoms: C3'_970  and  O3'_971 
REMARK       I    between atoms: O3'_971  and  P_972 
REMARK       I    between atoms: P_972  and  O5'_975 
REMARK       I    between atoms: O5'_975  and  C5'_976 
REMARK       I    between atoms: C5'_976  and  C4'_977 
REMARK       I    between atoms: C1'_979  and  N9_980 
REMARK       I    between atoms: C2_983  and  N2_984 
REMARK       I    between atoms: C2'_994  and  O2'_995 
REMARK       I    between atoms: C3'_997  and  O3'_998 
REMARK       I    between atoms: O3'_998  and  P_999 
REMARK       I    between atoms: P_999  and  O5'_1002 
REMARK       I    between atoms: O5'_1002  and  C5'_1003 
REMARK       I    between atoms: C5'_1003  and  C4'_1004 
REMARK       I    between atoms: C1'_1006  and  N9_1007 
REMARK       I    between atoms: C6_1012  and  N6_1013 
REMARK       I    between atoms: C2'_1019  and  O2'_1020 
REMARK       I    between atoms: C3'_1022  and  O3'_1023 
REMARK       I    between atoms: O3'_1023  and  P_1024 
REMARK       I    between atoms: P_1024  and  O5'_1027 
REMARK       I    between atoms: O5'_1027  and  C5'_1028 
REMARK       I    between atoms: C5'_1028  and  C4'_1029 
REMARK       I    between atoms: C1'_1031  and  N9_1032 
REMARK       I    between atoms: C6_1037  and  N6_1038 
REMARK       I    between atoms: C2'_1044  and  O2'_1045 
REMARK       I    between atoms: C3'_1047  and  O3'_1048 
REMARK       I    between atoms: O3'_1048  and  P_1049 
REMARK       I    between atoms: P_1049  and  O5'_1052 
REMARK       I    between atoms: O5'_1052  and  C5'_1053 
REMARK       I    between atoms: C5'_1053  and  C4'_1054 
REMARK       I    between atoms: C1'_1056  and  N9_1057 
REMARK       I    between atoms: C2_1060  and  N2_1061 
REMARK       I    between atoms: C2'_1071  and  O2'_1072 
REMARK       I    between atoms: C3'_1074  and  O3'_1075 
REMARK       I    between atoms: O3'_1075  and  P_1076 
REMARK       I    between atoms: P_1076  and  O5'_1079 
REMARK       I    between atoms: O5'_1079  and  C5'_1080 
REMARK       I    between atoms: C5'_1080  and  C4'_1081 
REMARK       I    between atoms: C1'_1083  and  N9_1084 
REMARK       I    between atoms: C6_1089  and  N6_1090 
REMARK       I    between atoms: C2'_1096  and  O2'_1097 
REMARK       I    between atoms: C3'_1099  and  O3'_1100 
REMARK       I    between atoms: O3'_1100  and  P_1101 
REMARK       I    between atoms: P_1101  and  O5'_1104 
REMARK       I    between atoms: O5'_1104  and  C5'_1105 
REMARK       I    between atoms: C5'_1105  and  C4'_1106 
REMARK       I    between atoms: C1'_1108  and  N9_1109 
REMARK       I    between atoms: C2_1112  and  N2_1113 
REMARK       I    between atoms: C2'_1123  and  O2'_1124 
REMARK       I    between atoms: C3'_1126  and  O3'_1127 
REMARK       I    between atoms: O3'_1127  and  P_1128 
REMARK       I    between atoms: P_1128  and  O5'_1131 
REMARK       I    between atoms: O5'_1131  and  C5'_1132 
REMARK       I    between atoms: C5'_1132  and  C4'_1133 
REMARK       I    between atoms: C1'_1135  and  N9_1136 
REMARK       I    between atoms: C2_1139  and  N2_1140 
REMARK       I    between atoms: C2'_1150  and  O2'_1151 
REMARK       I    between atoms: C3'_1153  and  O3'_1154 
REMARK       I    between atoms: O3'_1154  and  P_1155 
REMARK       I    between atoms: P_1155  and  O5'_1158 
REMARK       I    between atoms: O5'_1158  and  C5'_1159 
REMARK       I    between atoms: C5'_1159  and  C4'_1160 
REMARK       I    between atoms: C1'_1162  and  N1_1163 
REMARK       I    between atoms: C2'_1172  and  O2'_1173 
REMARK       I    between atoms: C3'_1175  and  O3'_1176 
REMARK       I    between atoms: O3'_1176  and  P_1177 
REMARK       I    between atoms: P_1177  and  O5'_1180 
REMARK       I    between atoms: O5'_1180  and  C5'_1181 
REMARK       I    between atoms: C5'_1181  and  C4'_1182 
REMARK       I    between atoms: C1'_1184  and  N1_1185 
REMARK       I    between atoms: C4_1190  and  N4_1191 
REMARK       I    between atoms: C2'_1195  and  O2'_1196 
REMARK       I    between atoms: C3'_1198  and  O3'_1199 
REMARK       I    between atoms: O3'_1199  and  P_1200 
REMARK       I    between atoms: P_1200  and  O5'_1203 
REMARK       I    between atoms: O5'_1203  and  C5'_1204 
REMARK       I    between atoms: C5'_1204  and  C4'_1205 
REMARK       I    between atoms: C1'_1207  and  N1_1208 
REMARK       I    between atoms: C4_1213  and  N4_1214 
REMARK       I    between atoms: C2'_1218  and  O2'_1219 
REMARK       I    between atoms: C3'_1221  and  O3'_1222 
REMARK       I    between atoms: O3'_1222  and  P_1223 
REMARK       I    between atoms: P_1223  and  O5'_1226 
REMARK       I    between atoms: O5'_1226  and  C5'_1227 
REMARK       I    between atoms: C5'_1227  and  C4'_1228 
REMARK       I    between atoms: C1'_1230  and  N1_1231 
REMARK       I    between atoms: C4_1236  and  N4_1237 
REMARK       I    between atoms: C2'_1241  and  O2'_1242 
REMARK       I    between atoms: C3'_1244  and  O3'_1245 
REMARK       I    between atoms: O3'_1245  and  P_1246 
REMARK       I    between atoms: P_1246  and  O5'_1249 
REMARK       I    between atoms: O5'_1249  and  C5'_1250 
REMARK       I    between atoms: C5'_1250  and  C4'_1251 
REMARK       I    between atoms: C1'_1253  and  N9_1254 
REMARK       I    between atoms: C6_1259  and  N6_1260 
REMARK       I    between atoms: C2'_1266  and  O2'_1267 
REMARK       I    between atoms: C3'_1269  and  O3'_1270 
REMARK       I    between atoms: O3'_1270  and  P_1271 
REMARK       I    between atoms: P_1271  and  O5'_1274 
REMARK       I    between atoms: O5'_1274  and  C5'_1275 
REMARK       I    between atoms: C5'_1275  and  C4'_1276 
REMARK       I    between atoms: C1'_1278  and  N9_1279 
REMARK       I    between atoms: C2_1282  and  N2_1283 
REMARK       I    between atoms: C2'_1293  and  O2'_1294 
REMARK       I    between atoms: C3'_1296  and  O3'_1297 
REMARK       I    between atoms: O3'_1297  and  P_1298 
REMARK       I    between atoms: P_1298  and  O5'_1301 
REMARK       I    between atoms: O5'_1301  and  C5'_1302 
REMARK       I    between atoms: C5'_1302  and  C4'_1303 
REMARK       I    between atoms: C1'_1305  and  N9_1306 
REMARK       I    between atoms: C6_1311  and  N6_1312 
REMARK       I    between atoms: C2'_1318  and  O2'_1319 
REMARK       I    between atoms: C3'_1321  and  O3'_1322 
REMARK       I    between atoms: O3'_1322  and  P_1323 
REMARK       I    between atoms: P_1323  and  O5'_1326 
REMARK       I    between atoms: O5'_1326  and  C5'_1327 
REMARK       I    between atoms: C5'_1327  and  C4'_1328 
REMARK       I    between atoms: C1'_1330  and  N1_1331 
REMARK       I    between atoms: C2'_1340  and  O2'_1341 
REMARK       I    between atoms: C3'_1343  and  O3'_1344 
REMARK       I    between atoms: O3'_1344  and  P_1345 
REMARK       I    between atoms: P_1345  and  O5'_1348 
REMARK       I    between atoms: O5'_1348  and  C5'_1349 
REMARK       I    between atoms: C5'_1349  and  C4'_1350 
REMARK       I    between atoms: C1'_1352  and  N1_1353 
REMARK       I    between atoms: C2'_1362  and  O2'_1363 
REMARK       I    between atoms: C3'_1365  and  O3'_1366 
REMARK       I    between atoms: O3'_1366  and  P_1367 
REMARK       I    between atoms: P_1367  and  O5'_1370 
REMARK       I    between atoms: O5'_1370  and  C5'_1371 
REMARK       I    between atoms: C5'_1371  and  C4'_1372 
REMARK       I    between atoms: C1'_1374  and  N1_1375 
REMARK       I    between atoms: C4_1380  and  N4_1381 
REMARK       I    between atoms: C2'_1385  and  O2'_1386 
REMARK       I    between atoms: C3'_1388  and  O3'_1389 
REMARK       I    between atoms: O3'_1389  and  P_1390 
REMARK       I    between atoms: P_1390  and  O5'_1393 
REMARK       I    between atoms: O5'_1393  and  C5'_1394 
REMARK       I    between atoms: C5'_1394  and  C4'_1395 
REMARK       I    between atoms: C1'_1397  and  N9_1398 
REMARK       I    between atoms: C2_1401  and  N2_1402 
REMARK       I    between atoms: C2'_1412  and  O2'_1413 
REMARK       I    between atoms: C3'_1415  and  O3'_1416 
REMARK       I    between atoms: O3'_1416  and  P_1417 
REMARK       I    between atoms: P_1417  and  O5'_1420 
REMARK       I    between atoms: O5'_1420  and  C5'_1421 
REMARK       I    between atoms: C5'_1421  and  C4'_1422 
REMARK       I    between atoms: C1'_1424  and  N9_1425 
REMARK       I    between atoms: C6_1430  and  N6_1431 
REMARK       I    between atoms: C2'_1437  and  O2'_1438 
REMARK       I    between atoms: C3'_1440  and  O3'_1441 
REMARK       I    between atoms: O3'_1441  and  P_1442 
REMARK       I    between atoms: P_1442  and  O5'_1445 
REMARK       I    between atoms: O5'_1445  and  C5'_1446 
REMARK       I    between atoms: C5'_1446  and  C4'_1447 
REMARK       I    between atoms: C1'_1449  and  N9_1450 
REMARK       I    between atoms: C2_1453  and  N2_1454 
REMARK       I    between atoms: C2'_1464  and  O2'_1465 
REMARK       I    between atoms: C3'_1467  and  O3'_1468 
REMARK       I    between atoms: O3'_1468  and  P_1469 
REMARK       I    between atoms: P_1469  and  O5'_1472 
REMARK       I    between atoms: O5'_1472  and  C5'_1473 
REMARK       I    between atoms: C5'_1473  and  C4'_1474 
REMARK       I    between atoms: C1'_1476  and  N1_1477 
REMARK       I    between atoms: C2'_1486  and  O2'_1487 
REMARK       I    between atoms: C3'_1489  and  O3'_1490 
REMARK       I    between atoms: O3'_1490  and  P_1491 
REMARK       I    between atoms: P_1491  and  O5'_1494 
REMARK       I    between atoms: O5'_1494  and  C5'_1495 
REMARK       I    between atoms: C5'_1495  and  C4'_1496 
REMARK       I    between atoms: C1'_1498  and  N1_1499 
REMARK       I    between atoms: C2'_1508  and  O2'_1509 
REMARK       I    between atoms: C3'_1511  and  O3'_1512 
REMARK       I    between atoms: O3'_1512  and  P_1513 
REMARK       I    between atoms: P_1513  and  O5'_1516 
REMARK       I    between atoms: O5'_1516  and  C5'_1517 
REMARK       I    between atoms: C5'_1517  and  C4'_1518 
REMARK       I    between atoms: C1'_1520  and  N1_1521 
REMARK       I    between atoms: C4_1526  and  N4_1527 
REMARK       I    between atoms: C2'_1531  and  O2'_1532 
REMARK       I    between atoms: C3'_1534  and  O3'_1535 
REMARK       I    between atoms: O3'_1535  and  P_1536 
REMARK       I    between atoms: P_1536  and  O5'_1539 
REMARK       I    between atoms: O5'_1539  and  C5'_1540 
REMARK       I    between atoms: C5'_1540  and  C4'_1541 
REMARK       I    between atoms: C1'_1543  and  N1_1544 
REMARK       I    between atoms: C2'_1553  and  O2'_1554 
REMARK       I    between atoms: C3'_1556  and  O3'_1557 
REMARK       I    between atoms: O3'_1557  and  P_1558 
REMARK       I    between atoms: P_1558  and  O5'_1561 
REMARK       I    between atoms: O5'_1561  and  C5'_1562 
REMARK       I    between atoms: C5'_1562  and  C4'_1563 
REMARK       I    between atoms: C1'_1565  and  N9_1566 
REMARK       I    between atoms: C2_1569  and  N2_1570 
REMARK       I    between atoms: C2'_1580  and  O2'_1581 
REMARK       I    between atoms: C3'_1583  and  O3'_1584 
REMARK       I    between atoms: O3'_1584  and  P_1585 
REMARK       I    between atoms: P_1585  and  O5'_1588 
REMARK       I    between atoms: O5'_1588  and  C5'_1589 
REMARK       I    between atoms: C5'_1589  and  C4'_1590 
REMARK       I    between atoms: C1'_1592  and  N9_1593 
REMARK       I    between atoms: C2_1596  and  N2_1597 
REMARK       I    between atoms: C2'_1607  and  O2'_1608 
REMARK       I    between atoms: C3'_1610  and  O3'_1611 
REMARK       I    between atoms: O3'_1611  and  P_1612 
REMARK       I    between atoms: P_1612  and  O5'_1615 
REMARK       I    between atoms: O5'_1615  and  C5'_1616 
REMARK       I    between atoms: C5'_1616  and  C4'_1617 
REMARK       I    between atoms: C1'_1619  and  N1_1620 
REMARK       I    between atoms: C4_1625  and  N4_1626 
REMARK       I    between atoms: C2'_1630  and  O2'_1631 
REMARK       I    between atoms: C3'_1633  and  O3'_1634 
REMARK       I    between atoms: O3'_1634  and  P_1635 
REMARK       I    between atoms: P_1635  and  O5'_1638 
REMARK       I    between atoms: O5'_1638  and  C5'_1639 
REMARK       I    between atoms: C5'_1639  and  C4'_1640 
REMARK       I    between atoms: C1'_1642  and  N1_1643 
REMARK       I    between atoms: C2'_1652  and  O2'_1653 
REMARK       I    between atoms: C3'_1655  and  O3'_1656 
REMARK       I    between atoms: O3'_1656  and  P_1657 
REMARK       I    between atoms: P_1657  and  O5'_1660 
REMARK       I    between atoms: O5'_1660  and  C5'_1661 
REMARK       I    between atoms: C5'_1661  and  C4'_1662 
REMARK       I    between atoms: C1'_1664  and  N1_1665 
REMARK       I    between atoms: C2'_1674  and  O2'_1675 
REMARK       I    between atoms: C3'_1677  and  O3'_1678 
REMARK       I    between atoms: O3'_1678  and  P_1679 
REMARK       I    between atoms: P_1679  and  O5'_1682 
REMARK       I    between atoms: O5'_1682  and  C5'_1683 
REMARK       I    between atoms: C5'_1683  and  C4'_1684 
REMARK       I    between atoms: C1'_1686  and  N9_1687 
REMARK       I    between atoms: C2_1690  and  N2_1691 
REMARK       I    between atoms: C2'_1701  and  O2'_1702 
REMARK       I    between atoms: C3'_1704  and  O3'_1705 
REMARK       I    between atoms: O3'_1705  and  P_1706 
REMARK       I    between atoms: P_1706  and  O5'_1709 
REMARK       I    between atoms: O5'_1709  and  C5'_1710 
REMARK       I    between atoms: C5'_1710  and  C4'_1711 
REMARK       I    between atoms: C1'_1713  and  N1_1714 
REMARK       I    between atoms: C2'_1723  and  O2'_1724 
REMARK       I    between atoms: C3'_1726  and  O3'_1727 
REMARK       I    between atoms: O3'_1727  and  P_1728 
REMARK       I    between atoms: P_1728  and  O5'_1731 
REMARK       I    between atoms: O5'_1731  and  C5'_1732 
REMARK       I    between atoms: C5'_1732  and  C4'_1733 
REMARK       I    between atoms: C1'_1735  and  N1_1736 
REMARK       I    between atoms: C4_1741  and  N4_1742 
REMARK       I    between atoms: C2'_1746  and  O2'_1747 
REMARK       I    between atoms: C3'_1749  and  O3'_1750 
REMARK       I    between atoms: O3'_1750  and  P_1751 
REMARK       I    between atoms: P_1751  and  O5'_1754 
REMARK       I    between atoms: O5'_1754  and  C5'_1755 
REMARK       I    between atoms: C5'_1755  and  C4'_1756 
REMARK       I    between atoms: C1'_1758  and  N1_1759 
REMARK       I    between atoms: C4_1764  and  N4_1765 
REMARK       I    between atoms: C2'_1769  and  O2'_1770 
REMARK       I    between atoms: C3'_1772  and  O3'_1773 
REMARK       I    between atoms: O3'_1773  and  P_1774 
REMARK       I    between atoms: P_1774  and  O5'_1777 
REMARK       I    between atoms: O5'_1777  and  C5'_1778 
REMARK       I    between atoms: C5'_1778  and  C4'_1779 
REMARK       I    between atoms: C1'_1781  and  N9_1782 
REMARK       I    between atoms: C6_1787  and  N6_1788 
REMARK       I    between atoms: C2'_1794  and  O2'_1795 
REMARK       I    between atoms: C3'_1797  and  O3'_1798 
REMARK       I    between atoms: O3'_1798  and  P_1799 
REMARK       I    between atoms: P_1799  and  O5'_1802 
REMARK       I    between atoms: O5'_1802  and  C5'_1803 
REMARK       I    between atoms: C5'_1803  and  C4'_1804 
REMARK       I    between atoms: C1'_1806  and  N9_1807 
REMARK       I    between atoms: C6_1812  and  N6_1813 
REMARK       I    between atoms: C2'_1819  and  O2'_1820 
REMARK       I    between atoms: C3'_1822  and  O3'_1823 
ROOT
ATOM      1 'HO5   G A   1      26.871  24.773   1.260  1.00  0.00     0.209 HD
ATOM      2  O5'   G A   1      26.280  25.456   1.585  1.00  0.00    -0.398 OA
ATOM      3  C5'   G A   1      26.061  25.197   2.974  1.00  0.00     0.198 C 
ATOM      4  C4'   G A   1      26.756  26.229   3.830  1.00  0.00     0.180 C 
ATOM      5  O4'   G A   1      26.092  26.265   5.122  1.00  0.00    -0.353 OA
ATOM      6  C1'   G A   1      27.049  26.232   6.160  1.00  0.00     0.262 C 
ATOM      7  N9    G A   1      26.930  24.952   6.852  1.00  0.00    -0.293 N 
ATOM      8  C4    G A   1      27.884  24.358   7.643  1.00  0.00     0.187 A 
ATOM      9  N3    G A   1      29.108  24.856   7.915  1.00  0.00    -0.044 NA
ATOM     10  C2    G A   1      29.800  24.056   8.706  1.00  0.00     0.703 A 
ATOM     11  N2    G A   1      31.039  24.398   9.070  1.00  0.00    -0.233 N 
ATOM     12  H21   G A   1      31.424  25.268   8.731  1.00  0.00     0.174 HD
ATOM     13  H22   G A   1      31.590  23.796   9.664  1.00  0.00     0.174 HD
ATOM     14  N1    G A   1      29.330  22.864   9.196  1.00  0.00    -0.153 N 
ATOM     15  H1    G A   1      29.937  22.327   9.795  1.00  0.00     0.187 HD
ATOM     16  C6    G A   1      28.073  22.331   8.931  1.00  0.00     0.292 A 
ATOM     17  O6    G A   1      27.749  21.246   9.426  1.00  0.00    -0.265 OA
ATOM     18  C5    G A   1      27.317  23.179   8.078  1.00  0.00     0.173 A 
ATOM     19  N7    G A   1      26.033  23.032   7.569  1.00  0.00    -0.234 NA
ATOM     20  C8    G A   1      25.850  24.104   6.848  1.00  0.00     0.214 A 
ATOM     21  C2'   G A   1      28.422  26.481   5.537  1.00  0.00     0.199 C 
ATOM     22  O2'   G A   1      28.667  27.873   5.517  1.00  0.00    -0.388 OA
ATOM     23 'HO2   G A   1      28.960  28.083   4.629  1.00  0.00     0.210 HD
ATOM     24  C3'   G A   1      28.226  25.943   4.122  1.00  0.00     0.198 C 
ATOM     25  O3'   G A   1      29.077  26.610   3.189  1.00  0.00    -0.279 OA
ATOM     26  P     G A   2      29.793  25.775   2.014  1.00  0.00     0.408 P 
ATOM     27  OP1   G A   2      30.199  26.754   0.974  1.00  0.00    -0.624 OA
ATOM     28  OP2   G A   2      28.916  24.633   1.646  1.00  0.00    -0.624 OA
ATOM     29  O5'   G A   2      31.112  25.200   2.699  1.00  0.00    -0.287 OA
ATOM     30  C5'   G A   2      31.037  24.378   3.861  1.00  0.00     0.216 C 
ATOM     31  C4'   G A   2      32.315  23.591   4.030  1.00  0.00     0.180 C 
ATOM     32  O4'   G A   2      32.394  23.163   5.417  1.00  0.00    -0.353 OA
ATOM     33  C1'   G A   2      32.296  21.761   5.476  1.00  0.00     0.262 C 
ATOM     34  N9    G A   2      30.896  21.402   5.685  1.00  0.00    -0.293 N 
ATOM     35  C4    G A   2      30.373  20.132   5.712  1.00  0.00     0.187 A 
ATOM     36  N3    G A   2      31.069  18.986   5.574  1.00  0.00    -0.044 NA
ATOM     37  C2    G A   2      30.286  17.925   5.633  1.00  0.00     0.703 A 
ATOM     38  N2    G A   2      30.817  16.705   5.513  1.00  0.00    -0.233 N 
ATOM     39  H21   G A   2      31.814  16.619   5.378  1.00  0.00     0.174 HD
ATOM     40  H22   G A   2      30.230  15.886   5.561  1.00  0.00     0.174 HD
ATOM     41  N1    G A   2      28.928  17.981   5.815  1.00  0.00    -0.153 N 
ATOM     42  H1    G A   2      28.413  17.114   5.839  1.00  0.00     0.187 HD
ATOM     43  C6    G A   2      28.194  19.151   5.971  1.00  0.00     0.292 A 
ATOM     44  O6    G A   2      26.973  19.092   6.147  1.00  0.00    -0.265 OA
ATOM     45  C5    G A   2      29.020  20.299   5.902  1.00  0.00     0.173 A 
ATOM     46  N7    G A   2      28.697  21.645   6.004  1.00  0.00    -0.234 NA
ATOM     47  C8    G A   2      29.840  22.258   5.876  1.00  0.00     0.214 A 
ATOM     48  C2'   G A   2      32.881  21.249   4.165  1.00  0.00     0.199 C 
ATOM     49  O2'   G A   2      34.292  21.239   4.272  1.00  0.00    -0.388 OA
ATOM     50 'HO2   G A   2      34.628  21.690   3.496  1.00  0.00     0.210 HD
ATOM     51  C3'   G A   2      32.407  22.319   3.183  1.00  0.00     0.198 C 
ATOM     52  O3'   G A   2      33.324  22.487   2.105  1.00  0.00    -0.279 OA
ATOM     53  P     G A   3      32.775  22.617   0.597  1.00  0.00     0.408 P 
ATOM     54  OP1   G A   3      33.961  22.669  -0.296  1.00  0.00    -0.624 OA
ATOM     55  OP2   G A   3      31.774  23.714   0.548  1.00  0.00    -0.624 OA
ATOM     56  O5'   G A   3      32.015  21.240   0.340  1.00  0.00    -0.287 OA
ATOM     57  C5'   G A   3      32.264  20.467  -0.835  1.00  0.00     0.216 C 
ATOM     58  C4'   G A   3      33.393  19.493  -0.592  1.00  0.00     0.180 C 
ATOM     59  O4'   G A   3      33.339  19.050   0.791  1.00  0.00    -0.353 OA
ATOM     60  C1'   G A   3      33.507  17.646   0.856  1.00  0.00     0.262 C 
ATOM     61  N9    G A   3      32.246  17.050   1.284  1.00  0.00    -0.293 N 
ATOM     62  C4    G A   3      32.079  15.808   1.848  1.00  0.00     0.187 A 
ATOM     63  N3    G A   3      33.057  14.916   2.105  1.00  0.00    -0.044 NA
ATOM     64  C2    G A   3      32.585  13.810   2.652  1.00  0.00     0.703 A 
ATOM     65  N2    G A   3      33.422  12.819   2.969  1.00  0.00    -0.233 N 
ATOM     66  H21   G A   3      34.408  12.935   2.784  1.00  0.00     0.174 HD
ATOM     67  H22   G A   3      33.076  11.966   3.382  1.00  0.00     0.174 HD
ATOM     68  N1    G A   3      31.260  13.594   2.926  1.00  0.00    -0.153 N 
ATOM     69  H1    G A   3      31.005  12.713   3.346  1.00  0.00     0.187 HD
ATOM     70  C6    G A   3      30.234  14.496   2.669  1.00  0.00     0.292 A 
ATOM     71  O6    G A   3      29.069  14.201   2.956  1.00  0.00    -0.265 OA
ATOM     72  C5    G A   3      30.725  15.690   2.081  1.00  0.00     0.173 A 
ATOM     73  N7    G A   3      30.053  16.834   1.672  1.00  0.00    -0.234 NA
ATOM     74  C8    G A   3      30.994  17.611   1.207  1.00  0.00     0.214 A 
ATOM     75  C2'   G A   3      33.977  17.177  -0.520  1.00  0.00     0.199 C 
ATOM     76  O2'   G A   3      35.391  17.252  -0.569  1.00  0.00    -0.388 OA
ATOM     77 'HO2   G A   3      35.615  17.980  -1.149  1.00  0.00     0.210 HD
ATOM     78  C3'   G A   3      33.331  18.219  -1.426  1.00  0.00     0.198 C 
ATOM     79  O3'   G A   3      34.033  18.369  -2.656  1.00  0.00    -0.279 OA
ATOM     80  P     C A   4      33.773  17.328  -3.854  1.00  0.00     0.408 P 
ATOM     81  OP1   C A   4      35.058  16.633  -4.125  1.00  0.00    -0.624 OA
ATOM     82  OP2   C A   4      33.089  18.059  -4.949  1.00  0.00    -0.624 OA
ATOM     83  O5'   C A   4      32.741  16.282  -3.237  1.00  0.00    -0.287 OA
ATOM     84  C5'   C A   4      32.829  14.888  -3.535  1.00  0.00     0.216 C 
ATOM     85  C4'   C A   4      31.504  14.383  -4.056  1.00  0.00     0.180 C 
ATOM     86  O4'   C A   4      30.441  14.840  -3.179  1.00  0.00    -0.353 OA
ATOM     87  C1'   C A   4      29.270  15.082  -3.940  1.00  0.00     0.264 C 
ATOM     88  N1    C A   4      28.848  16.474  -3.715  1.00  0.00    -0.278 N 
ATOM     89  C6    C A   4      29.771  17.479  -3.623  1.00  0.00     0.102 A 
ATOM     90  C2    C A   4      27.485  16.758  -3.603  1.00  0.00     0.352 A 
ATOM     91  O2    C A   4      26.668  15.829  -3.686  1.00  0.00    -0.244 OA
ATOM     92  N3    C A   4      27.088  18.035  -3.408  1.00  0.00    -0.177 NA
ATOM     93  C4    C A   4      27.995  19.009  -3.324  1.00  0.00     0.128 A 
ATOM     94  N4    C A   4      27.556  20.252  -3.135  1.00  0.00    -0.384 N 
ATOM     95  H41   C A   4      28.210  21.018  -3.066  1.00  0.00     0.157 HD
ATOM     96  H42   C A   4      26.563  20.424  -3.053  1.00  0.00     0.157 HD
ATOM     97  C5    C A   4      29.393  18.750  -3.432  1.00  0.00     0.067 A 
ATOM     98  C2'   C A   4      29.583  14.771  -5.405  1.00  0.00     0.199 C 
ATOM     99  O2'   C A   4      29.182  13.444  -5.686  1.00  0.00    -0.388 OA
ATOM    100 'HO2   C A   4      29.501  13.241  -6.566  1.00  0.00     0.210 HD
ATOM    101  C3'   C A   4      31.103  14.903  -5.429  1.00  0.00     0.198 C 
ATOM    102  O3'   C A   4      31.702  14.135  -6.470  1.00  0.00    -0.279 OA
ATOM    103  P     A A   5      32.418  14.878  -7.706  1.00  0.00     0.408 P 
ATOM    104  OP1   A A   5      33.496  13.978  -8.191  1.00  0.00    -0.624 OA
ATOM    105  OP2   A A   5      32.751  16.268  -7.304  1.00  0.00    -0.624 OA
ATOM    106  O5'   A A   5      31.286  14.944  -8.826  1.00  0.00    -0.287 OA
ATOM    107  C5'   A A   5      30.918  13.785  -9.572  1.00  0.00     0.216 C 
ATOM    108  C4'   A A   5      29.491  13.905 -10.055  1.00  0.00     0.180 C 
ATOM    109  O4'   A A   5      28.646  14.289  -8.936  1.00  0.00    -0.353 OA
ATOM    110  C1'   A A   5      27.673  15.225  -9.368  1.00  0.00     0.262 C 
ATOM    111  N9    A A   5      27.907  16.488  -8.666  1.00  0.00    -0.294 N 
ATOM    112  C4    A A   5      26.961  17.433  -8.354  1.00  0.00     0.167 A 
ATOM    113  N3    A A   5      25.646  17.390  -8.628  1.00  0.00    -0.222 NA
ATOM    114  C2    A A   5      25.036  18.482  -8.172  1.00  0.00     0.237 A 
ATOM    115  N1    A A   5      25.554  19.533  -7.523  1.00  0.00    -0.222 NA
ATOM    116  C6    A A   5      26.879  19.545  -7.265  1.00  0.00     0.155 A 
ATOM    117  N6    A A   5      27.392  20.595  -6.621  1.00  0.00    -0.382 N 
ATOM    118  H61   A A   5      28.380  20.626  -6.419  1.00  0.00     0.157 HD
ATOM    119  H62   A A   5      26.790  21.355  -6.337  1.00  0.00     0.157 HD
ATOM    120  C5    A A   5      27.639  18.443  -7.697  1.00  0.00     0.149 A 
ATOM    121  N7    A A   5      28.990  18.142  -7.597  1.00  0.00    -0.236 NA
ATOM    122  C8    A A   5      29.097  16.975  -8.186  1.00  0.00     0.214 A 
ATOM    123  C2'   A A   5      27.782  15.336 -10.888  1.00  0.00     0.199 C 
ATOM    124  O2'   A A   5      26.924  14.374 -11.474  1.00  0.00    -0.388 OA
ATOM    125 'HO2   A A   5      27.366  14.043 -12.257  1.00  0.00     0.210 HD
ATOM    126  C3'   A A   5      29.247  14.977 -11.110  1.00  0.00     0.198 C 
ATOM    127  O3'   A A   5      29.490  14.483 -12.425  1.00  0.00    -0.279 OA
ATOM    128  P     U A   6      29.925  15.499 -13.594  1.00  0.00     0.408 P 
ATOM    129  OP1   U A   6      30.280  14.682 -14.783  1.00  0.00    -0.624 OA
ATOM    130  OP2   U A   6      30.914  16.458 -13.041  1.00  0.00    -0.624 OA
ATOM    131  O5'   U A   6      28.588  16.302 -13.924  1.00  0.00    -0.287 OA
ATOM    132  C5'   U A   6      27.522  15.692 -14.649  1.00  0.00     0.216 C 
ATOM    133  C4'   U A   6      26.522  16.739 -15.084  1.00  0.00     0.180 C 
ATOM    134  O4'   U A   6      25.806  17.219 -13.912  1.00  0.00    -0.353 OA
ATOM    135  C1'   U A   6      25.618  18.620 -14.008  1.00  0.00     0.264 C 
ATOM    136  N1    U A   6      26.379  19.265 -12.928  1.00  0.00    -0.280 N 
ATOM    137  C6    U A   6      27.591  18.761 -12.509  1.00  0.00     0.104 A 
ATOM    138  C2    U A   6      25.840  20.398 -12.346  1.00  0.00     0.331 A 
ATOM    139  O2    U A   6      24.773  20.875 -12.687  1.00  0.00    -0.246 OA
ATOM    140  N3    U A   6      26.597  20.953 -11.348  1.00  0.00    -0.275 N 
ATOM    141  H3    U A   6      26.226  21.782 -10.911  1.00  0.00     0.173 HD
ATOM    142  C4    U A   6      27.810  20.503 -10.880  1.00  0.00     0.250 A 
ATOM    143  O4    U A   6      28.364  21.107  -9.962  1.00  0.00    -0.268 OA
ATOM    144  C5    U A   6      28.301  19.331 -11.531  1.00  0.00     0.092 A 
ATOM    145  C2'   U A   6      26.062  19.047 -15.406  1.00  0.00     0.199 C 
ATOM    146  O2'   U A   6      24.956  18.944 -16.284  1.00  0.00    -0.388 OA
ATOM    147 'HO2   U A   6      25.006  19.696 -16.876  1.00  0.00     0.210 HD
ATOM    148  C3'   U A   6      27.117  17.992 -15.711  1.00  0.00     0.198 C 
ATOM    149  O3'   U A   6      27.336  17.828 -17.109  1.00  0.00    -0.279 OA
ATOM    150  P     G A   7      28.492  18.675 -17.840  1.00  0.00     0.408 P 
ATOM    151  OP1   G A   7      28.445  18.337 -19.286  1.00  0.00    -0.624 OA
ATOM    152  OP2   G A   7      29.756  18.485 -17.084  1.00  0.00    -0.624 OA
ATOM    153  O5'   G A   7      28.030  20.191 -17.666  1.00  0.00    -0.287 OA
ATOM    154  C5'   G A   7      27.187  20.820 -18.632  1.00  0.00     0.216 C 
ATOM    155  C4'   G A   7      26.449  21.982 -18.005  1.00  0.00     0.180 C 
ATOM    156  O4'   G A   7      26.213  21.694 -16.602  1.00  0.00    -0.353 OA
ATOM    157  C1'   G A   7      26.357  22.877 -15.838  1.00  0.00     0.262 C 
ATOM    158  N9    G A   7      27.435  22.674 -14.875  1.00  0.00    -0.293 N 
ATOM    159  C4    G A   7      27.713  23.461 -13.784  1.00  0.00     0.187 A 
ATOM    160  N3    G A   7      27.035  24.566 -13.409  1.00  0.00    -0.044 NA
ATOM    161  C2    G A   7      27.541  25.108 -12.316  1.00  0.00     0.703 A 
ATOM    162  N2    G A   7      26.986  26.212 -11.808  1.00  0.00    -0.233 N 
ATOM    163  H21   G A   7      26.184  26.617 -12.269  1.00  0.00     0.174 HD
ATOM    164  H22   G A   7      27.364  26.640 -10.975  1.00  0.00     0.174 HD
ATOM    165  N1    G A   7      28.626  24.609 -11.642  1.00  0.00    -0.153 N 
ATOM    166  H1    G A   7      28.936  25.098 -10.818  1.00  0.00     0.187 HD
ATOM    167  C6    G A   7      29.339  23.473 -12.007  1.00  0.00     0.292 A 
ATOM    168  O6    G A   7      30.303  23.110 -11.325  1.00  0.00    -0.265 OA
ATOM    169  C5    G A   7      28.808  22.878 -13.182  1.00  0.00     0.173 A 
ATOM    170  N7    G A   7      29.212  21.748 -13.880  1.00  0.00    -0.234 NA
ATOM    171  C8    G A   7      28.371  21.668 -14.875  1.00  0.00     0.214 A 
ATOM    172  C2'   G A   7      26.605  24.035 -16.806  1.00  0.00     0.199 C 
ATOM    173  O2'   G A   7      25.361  24.626 -17.133  1.00  0.00    -0.388 OA
ATOM    174 'HO2   G A   7      25.259  24.545 -18.081  1.00  0.00     0.210 HD
ATOM    175  C3'   G A   7      27.200  23.307 -18.007  1.00  0.00     0.198 C 
ATOM    176  O3'   G A   7      26.994  24.011 -19.229  1.00  0.00    -0.279 OA
ATOM    177  P     U A   8      28.075  25.094 -19.723  1.00  0.00     0.408 P 
ATOM    178  OP1   U A   8      27.647  25.563 -21.065  1.00  0.00    -0.624 OA
ATOM    179  OP2   U A   8      29.435  24.521 -19.546  1.00  0.00    -0.624 OA
ATOM    180  O5'   U A   8      27.908  26.302 -18.697  1.00  0.00    -0.287 OA
ATOM    181  C5'   U A   8      26.675  27.012 -18.593  1.00  0.00     0.216 C 
ATOM    182  C4'   U A   8      26.913  28.387 -18.012  1.00  0.00     0.180 C 
ATOM    183  O4'   U A   8      26.757  28.315 -16.568  1.00  0.00    -0.353 OA
ATOM    184  C1'   U A   8      27.765  29.084 -15.937  1.00  0.00     0.264 C 
ATOM    185  N1    U A   8      28.637  28.172 -15.184  1.00  0.00    -0.280 N 
ATOM    186  C6    U A   8      28.885  26.893 -15.628  1.00  0.00     0.104 A 
ATOM    187  C2    U A   8      29.202  28.641 -14.011  1.00  0.00     0.331 A 
ATOM    188  O2    U A   8      29.006  29.763 -13.583  1.00  0.00    -0.246 OA
ATOM    189  N3    U A   8      30.007  27.744 -13.357  1.00  0.00    -0.275 N 
ATOM    190  H3    U A   8      30.430  28.065 -12.499  1.00  0.00     0.173 HD
ATOM    191  C4    U A   8      30.297  26.455 -13.744  1.00  0.00     0.250 A 
ATOM    192  O4    U A   8      31.045  25.771 -13.049  1.00  0.00    -0.268 OA
ATOM    193  C5    U A   8      29.673  26.045 -14.963  1.00  0.00     0.092 A 
ATOM    194  C2'   U A   8      28.490  29.873 -17.027  1.00  0.00     0.199 C 
ATOM    195  O2'   U A   8      27.818  31.104 -17.221  1.00  0.00    -0.388 OA
ATOM    196 'HO2   U A   8      27.671  31.191 -18.164  1.00  0.00     0.210 HD
ATOM    197  C3'   U A   8      28.310  28.953 -18.229  1.00  0.00     0.198 C 
ATOM    198  O3'   U A   8      28.405  29.655 -19.465  1.00  0.00    -0.279 OA
ATOM    199  P     G A   9      29.624  29.347 -20.470  1.00  0.00     0.408 P 
ATOM    200  OP1   G A   9      29.094  28.492 -21.560  1.00  0.00    -0.624 OA
ATOM    201  OP2   G A   9      30.786  28.880 -19.670  1.00  0.00    -0.624 OA
ATOM    202  O5'   G A   9      29.988  30.770 -21.090  1.00  0.00    -0.287 OA
ATOM    203  C5'   G A   9      29.341  31.960 -20.640  1.00  0.00     0.216 C 
ATOM    204  C4'   G A   9      30.352  33.072 -20.479  1.00  0.00     0.180 C 
ATOM    205  O4'   G A   9      29.639  34.291 -20.127  1.00  0.00    -0.353 OA
ATOM    206  C1'   G A   9      30.120  34.785 -18.894  1.00  0.00     0.262 C 
ATOM    207  N9    G A   9      28.999  35.364 -18.159  1.00  0.00    -0.293 N 
ATOM    208  C4    G A   9      28.062  36.237 -18.652  1.00  0.00     0.187 A 
ATOM    209  N3    G A   9      28.009  36.719 -19.913  1.00  0.00    -0.044 NA
ATOM    210  C2    G A   9      26.990  37.541 -20.084  1.00  0.00     0.703 A 
ATOM    211  N2    G A   9      26.790  38.107 -21.276  1.00  0.00    -0.233 N 
ATOM    212  H21   G A   9      27.427  37.894 -22.031  1.00  0.00     0.174 HD
ATOM    213  H22   G A   9      26.018  38.738 -21.424  1.00  0.00     0.174 HD
ATOM    214  N1    G A   9      26.092  37.868 -19.101  1.00  0.00    -0.153 N 
ATOM    215  H1    G A   9      25.348  38.506 -19.331  1.00  0.00     0.187 HD
ATOM    216  C6    G A   9      26.126  37.387 -17.797  1.00  0.00     0.292 A 
ATOM    217  O6    G A   9      25.266  37.751 -16.987  1.00  0.00    -0.265 OA
ATOM    218  C5    G A   9      27.215  36.501 -17.595  1.00  0.00     0.173 A 
ATOM    219  N7    G A   9      27.612  35.807 -16.461  1.00  0.00    -0.234 NA
ATOM    220  C8    G A   9      28.672  35.148 -16.843  1.00  0.00     0.214 A 
ATOM    221  C2'   G A   9      30.791  33.610 -18.189  1.00  0.00     0.199 C 
ATOM    222  O2'   G A   9      31.800  34.119 -17.337  1.00  0.00    -0.388 OA
ATOM    223 'HO2   G A   9      32.460  33.433 -17.225  1.00  0.00     0.210 HD
ATOM    224  C3'   G A   9      31.382  32.853 -19.375  1.00  0.00     0.198 C 
ATOM    225  O3'   G A   9      32.660  33.350 -19.760  1.00  0.00    -0.279 OA
ATOM    226  P     G A  10      33.992  32.564 -19.322  1.00  0.00     0.408 P 
ATOM    227  OP1   G A  10      35.115  33.126 -20.118  1.00  0.00    -0.624 OA
ATOM    228  OP2   G A  10      33.722  31.104 -19.368  1.00  0.00    -0.624 OA
ATOM    229  O5'   G A  10      34.200  32.980 -17.798  1.00  0.00    -0.287 OA
ATOM    230  C5'   G A  10      34.921  34.160 -17.450  1.00  0.00     0.216 C 
ATOM    231  C4'   G A  10      34.935  34.344 -15.950  1.00  0.00     0.180 C 
ATOM    232  O4'   G A  10      34.960  33.033 -15.315  1.00  0.00    -0.353 OA
ATOM    233  C1'   G A  10      36.176  32.865 -14.613  1.00  0.00     0.262 C 
ATOM    234  N9    G A  10      36.650  31.503 -14.828  1.00  0.00    -0.293 N 
ATOM    235  C4    G A  10      37.671  30.878 -14.155  1.00  0.00     0.187 A 
ATOM    236  N3    G A  10      38.420  31.420 -13.171  1.00  0.00    -0.044 NA
ATOM    237  C2    G A  10      39.325  30.573 -12.718  1.00  0.00     0.703 A 
ATOM    238  N2    G A  10      40.152  30.947 -11.735  1.00  0.00    -0.233 N 
ATOM    239  H21   G A  10      40.069  31.878 -11.353  1.00  0.00     0.174 HD
ATOM    240  H22   G A  10      40.842  30.305 -11.372  1.00  0.00     0.174 HD
ATOM    241  N1    G A  10      39.488  29.297 -13.190  1.00  0.00    -0.153 N 
ATOM    242  H1    G A  10      40.208  28.728 -12.774  1.00  0.00     0.187 HD
ATOM    243  C6    G A  10      38.732  28.718 -14.202  1.00  0.00     0.292 A 
ATOM    244  O6    G A  10      38.966  27.555 -14.555  1.00  0.00    -0.265 OA
ATOM    245  C5    G A  10      37.751  29.615 -14.701  1.00  0.00     0.173 A 
ATOM    246  N7    G A  10      36.797  29.447 -15.697  1.00  0.00    -0.234 NA
ATOM    247  C8    G A  10      36.171  30.590 -15.737  1.00  0.00     0.214 A 
ATOM    248  C2'   G A  10      37.130  33.940 -15.125  1.00  0.00     0.199 C 
ATOM    249  O2'   G A  10      38.040  34.275 -14.094  1.00  0.00    -0.388 OA
ATOM    250 'HO2   G A  10      38.569  35.006 -14.414  1.00  0.00     0.210 HD
ATOM    251  C3'   G A  10      36.155  35.077 -15.406  1.00  0.00     0.198 C 
ATOM    252  O3'   G A  10      35.831  35.821 -14.234  1.00  0.00    -0.279 OA
ATOM    253  P     U A  11      36.750  37.066 -13.793  1.00  0.00     0.408 P 
ATOM    254  OP1   U A  11      35.844  38.226 -13.595  1.00  0.00    -0.624 OA
ATOM    255  OP2   U A  11      37.889  37.178 -14.742  1.00  0.00    -0.624 OA
ATOM    256  O5'   U A  11      37.326  36.644 -12.369  1.00  0.00    -0.287 OA
ATOM    257  C5'   U A  11      36.930  35.424 -11.741  1.00  0.00     0.216 C 
ATOM    258  C4'   U A  11      37.319  35.440 -10.282  1.00  0.00     0.180 C 
ATOM    259  O4'   U A  11      36.754  36.628  -9.659  1.00  0.00    -0.353 OA
ATOM    260  C1'   U A  11      35.737  36.255  -8.748  1.00  0.00     0.264 C 
ATOM    261  N1    U A  11      34.584  37.142  -8.958  1.00  0.00    -0.280 N 
ATOM    262  C6    U A  11      34.167  37.478 -10.226  1.00  0.00     0.104 A 
ATOM    263  C2    U A  11      33.930  37.629  -7.841  1.00  0.00     0.331 A 
ATOM    264  O2    U A  11      34.268  37.356  -6.703  1.00  0.00    -0.246 OA
ATOM    265  N3    U A  11      32.866  38.451  -8.106  1.00  0.00    -0.275 N 
ATOM    266  H3    U A  11      32.375  38.823  -7.306  1.00  0.00     0.173 HD
ATOM    267  C4    U A  11      32.395  38.826  -9.343  1.00  0.00     0.250 A 
ATOM    268  O4    U A  11      31.421  39.574  -9.417  1.00  0.00    -0.268 OA
ATOM    269  C5    U A  11      33.122  38.281 -10.446  1.00  0.00     0.092 A 
ATOM    270  C2'   U A  11      35.435  34.777  -8.987  1.00  0.00     0.199 C 
ATOM    271  O2'   U A  11      35.066  34.185  -7.756  1.00  0.00    -0.388 OA
ATOM    272 'HO2   U A  11      35.784  33.608  -7.492  1.00  0.00     0.210 HD
ATOM    273  C3'   U A  11      36.792  34.271  -9.460  1.00  0.00     0.198 C 
ATOM    274  O3'   U A  11      37.662  33.962  -8.375  1.00  0.00    -0.279 OA
ATOM    275  P     G A  12      38.832  32.877  -8.572  1.00  0.00     0.408 P 
ATOM    276  OP1   G A  12      39.516  32.715  -7.264  1.00  0.00    -0.624 OA
ATOM    277  OP2   G A  12      39.625  33.245  -9.773  1.00  0.00    -0.624 OA
ATOM    278  O5'   G A  12      38.053  31.524  -8.893  1.00  0.00    -0.287 OA
ATOM    279  C5'   G A  12      37.151  30.949  -7.948  1.00  0.00     0.216 C 
ATOM    280  C4'   G A  12      36.849  29.515  -8.320  1.00  0.00     0.180 C 
ATOM    281  O4'   G A  12      35.591  29.490  -9.052  1.00  0.00    -0.353 OA
ATOM    282  C1'   G A  12      35.789  28.905 -10.321  1.00  0.00     0.262 C 
ATOM    283  N9    G A  12      34.926  29.580 -11.285  1.00  0.00    -0.293 N 
ATOM    284  C4    G A  12      34.544  29.096 -12.512  1.00  0.00     0.187 A 
ATOM    285  N3    G A  12      34.903  27.908 -13.039  1.00  0.00    -0.044 NA
ATOM    286  C2    G A  12      34.380  27.722 -14.238  1.00  0.00     0.703 A 
ATOM    287  N2    G A  12      34.639  26.596 -14.905  1.00  0.00    -0.233 N 
ATOM    288  H21   G A  12      35.235  25.902 -14.475  1.00  0.00     0.174 HD
ATOM    289  H22   G A  12      34.257  26.443 -15.825  1.00  0.00     0.174 HD
ATOM    290  N1    G A  12      33.566  28.627 -14.868  1.00  0.00    -0.153 N 
ATOM    291  H1    G A  12      33.215  28.394 -15.784  1.00  0.00     0.187 HD
ATOM    292  C6    G A  12      33.180  29.857 -14.344  1.00  0.00     0.292 A 
ATOM    293  O6    G A  12      32.436  30.595 -14.998  1.00  0.00    -0.265 OA
ATOM    294  C5    G A  12      33.738  30.073 -13.056  1.00  0.00     0.173 A 
ATOM    295  N7    G A  12      33.615  31.151 -12.189  1.00  0.00    -0.234 NA
ATOM    296  C8    G A  12      34.335  30.813 -11.154  1.00  0.00     0.214 A 
ATOM    297  C2'   G A  12      37.279  29.033 -10.625  1.00  0.00     0.199 C 
ATOM    298  O2'   G A  12      37.664  27.977 -11.487  1.00  0.00    -0.388 OA
ATOM    299 'HO2   G A  12      37.615  27.171 -10.972  1.00  0.00     0.210 HD
ATOM    300  C3'   G A  12      37.877  28.851  -9.235  1.00  0.00     0.198 C 
ATOM    301  O3'   G A  12      38.059  27.475  -8.907  1.00  0.00    -0.279 OA
ATOM    302  P     U A  13      39.214  27.043  -7.874  1.00  0.00     0.408 P 
ATOM    303  OP1   U A  13      40.346  27.994  -8.031  1.00  0.00    -0.624 OA
ATOM    304  OP2   U A  13      39.455  25.587  -8.037  1.00  0.00    -0.624 OA
ATOM    305  O5'   U A  13      38.561  27.288  -6.441  1.00  0.00    -0.287 OA
ATOM    306  C5'   U A  13      37.718  26.307  -5.839  1.00  0.00     0.216 C 
ATOM    307  C4'   U A  13      37.431  26.676  -4.402  1.00  0.00     0.180 C 
ATOM    308  O4'   U A  13      38.694  26.768  -3.685  1.00  0.00    -0.353 OA
ATOM    309  C1'   U A  13      38.904  28.099  -3.253  1.00  0.00     0.264 C 
ATOM    310  N1    U A  13      40.316  28.440  -3.472  1.00  0.00    -0.280 N 
ATOM    311  C6    U A  13      40.964  28.084  -4.633  1.00  0.00     0.104 A 
ATOM    312  C2    U A  13      40.976  29.132  -2.472  1.00  0.00     0.331 A 
ATOM    313  O2    U A  13      40.439  29.462  -1.430  1.00  0.00    -0.246 OA
ATOM    314  N3    U A  13      42.289  29.423  -2.739  1.00  0.00    -0.275 N 
ATOM    315  H3    U A  13      42.787  29.932  -2.025  1.00  0.00     0.173 HD
ATOM    316  C4    U A  13      42.996  29.100  -3.874  1.00  0.00     0.250 A 
ATOM    317  O4    U A  13      44.178  29.432  -3.965  1.00  0.00    -0.268 OA
ATOM    318  C5    U A  13      42.246  28.384  -4.858  1.00  0.00     0.092 A 
ATOM    319  C2'   U A  13      37.927  28.978  -4.030  1.00  0.00     0.199 C 
ATOM    320  O2'   U A  13      37.577  30.089  -3.228  1.00  0.00    -0.388 OA
ATOM    321 'HO2   U A  13      36.763  29.859  -2.778  1.00  0.00     0.210 HD
ATOM    322  C3'   U A  13      36.750  28.026  -4.202  1.00  0.00     0.198 C 
ATOM    323  O3'   U A  13      35.897  28.013  -3.061  1.00  0.00    -0.279 OA
ATOM    324  P     A A  14      34.345  27.624  -3.227  1.00  0.00     0.408 P 
ATOM    325  OP1   A A  14      33.742  27.615  -1.870  1.00  0.00    -0.624 OA
ATOM    326  OP2   A A  14      34.248  26.413  -4.080  1.00  0.00    -0.624 OA
ATOM    327  O5'   A A  14      33.725  28.851  -4.034  1.00  0.00    -0.287 OA
ATOM    328  C5'   A A  14      34.051  30.196  -3.690  1.00  0.00     0.216 C 
ATOM    329  C4'   A A  14      33.363  31.154  -4.632  1.00  0.00     0.180 C 
ATOM    330  O4'   A A  14      33.967  31.027  -5.947  1.00  0.00    -0.353 OA
ATOM    331  C1'   A A  14      32.963  31.089  -6.944  1.00  0.00     0.262 C 
ATOM    332  N9    A A  14      32.942  29.810  -7.654  1.00  0.00    -0.294 N 
ATOM    333  C4    A A  14      32.330  29.561  -8.858  1.00  0.00     0.167 A 
ATOM    334  N3    A A  14      31.632  30.427  -9.612  1.00  0.00    -0.222 NA
ATOM    335  C2    A A  14      31.186  29.835 -10.716  1.00  0.00     0.237 A 
ATOM    336  N1    A A  14      31.347  28.567 -11.122  1.00  0.00    -0.222 NA
ATOM    337  C6    A A  14      32.054  27.724 -10.341  1.00  0.00     0.155 A 
ATOM    338  N6    A A  14      32.216  26.465 -10.746  1.00  0.00    -0.382 N 
ATOM    339  H61   A A  14      32.742  25.818 -10.177  1.00  0.00     0.157 HD
ATOM    340  H62   A A  14      31.813  26.158 -11.621  1.00  0.00     0.157 HD
ATOM    341  C5    A A  14      32.580  28.231  -9.140  1.00  0.00     0.149 A 
ATOM    342  N7    A A  14      33.333  27.648  -8.129  1.00  0.00    -0.236 NA
ATOM    343  C8    A A  14      33.520  28.624  -7.274  1.00  0.00     0.214 A 
ATOM    344  C2'   A A  14      31.642  31.436  -6.256  1.00  0.00     0.199 C 
ATOM    345  O2'   A A  14      31.498  32.844  -6.240  1.00  0.00    -0.388 OA
ATOM    346 'HO2   A A  14      31.399  33.099  -5.323  1.00  0.00     0.210 HD
ATOM    347  C3'   A A  14      31.879  30.893  -4.852  1.00  0.00     0.198 C 
ATOM    348  O3'   A A  14      31.088  31.561  -3.870  1.00  0.00    -0.279 OA
ATOM    349  P     G A  15      29.614  31.019  -3.524  1.00  0.00     0.408 P 
ATOM    350  OP1   G A  15      28.970  32.027  -2.643  1.00  0.00    -0.624 OA
ATOM    351  OP2   G A  15      29.728  29.610  -3.065  1.00  0.00    -0.624 OA
ATOM    352  O5'   G A  15      28.858  31.028  -4.926  1.00  0.00    -0.287 OA
ATOM    353  C5'   G A  15      28.596  32.252  -5.612  1.00  0.00     0.216 C 
ATOM    354  C4'   G A  15      27.487  32.061  -6.621  1.00  0.00     0.180 C 
ATOM    355  O4'   G A  15      28.058  31.700  -7.905  1.00  0.00    -0.353 OA
ATOM    356  C1'   G A  15      27.145  30.881  -8.615  1.00  0.00     0.262 C 
ATOM    357  N9    G A  15      27.829  29.650  -8.998  1.00  0.00    -0.293 N 
ATOM    358  C4    G A  15      28.404  28.732  -8.151  1.00  0.00     0.187 A 
ATOM    359  N3    G A  15      28.441  28.809  -6.804  1.00  0.00    -0.044 NA
ATOM    360  C2    G A  15      29.063  27.775  -6.269  1.00  0.00     0.703 A 
ATOM    361  N2    G A  15      29.188  27.692  -4.943  1.00  0.00    -0.233 N 
ATOM    362  H21   G A  15      28.802  28.426  -4.366  1.00  0.00     0.174 HD
ATOM    363  H22   G A  15      29.665  26.912  -4.517  1.00  0.00     0.174 HD
ATOM    364  N1    G A  15      29.607  26.746  -6.993  1.00  0.00    -0.153 N 
ATOM    365  H1    G A  15      30.065  26.005  -6.483  1.00  0.00     0.187 HD
ATOM    366  C6    G A  15      29.578  26.642  -8.378  1.00  0.00     0.292 A 
ATOM    367  O6    G A  15      30.096  25.666  -8.931  1.00  0.00    -0.265 OA
ATOM    368  C5    G A  15      28.914  27.747  -8.971  1.00  0.00     0.173 A 
ATOM    369  N7    G A  15      28.666  28.039 -10.306  1.00  0.00    -0.234 NA
ATOM    370  C8    G A  15      28.023  29.175 -10.271  1.00  0.00     0.214 A 
ATOM    371  C2'   G A  15      25.929  30.650  -7.715  1.00  0.00     0.199 C 
ATOM    372  O2'   G A  15      24.936  31.603  -8.046  1.00  0.00    -0.388 OA
ATOM    373 'HO2   G A  15      24.707  32.053  -7.232  1.00  0.00     0.210 HD
ATOM    374  C3'   G A  15      26.517  30.925  -6.336  1.00  0.00     0.198 C 
ATOM    375  O3'   G A  15      25.527  31.301  -5.383  1.00  0.00    -0.279 OA
ATOM    376  P     A A  16      24.814  30.172  -4.487  1.00  0.00     0.408 P 
ATOM    377  OP1   A A  16      23.886  30.867  -3.558  1.00  0.00    -0.624 OA
ATOM    378  OP2   A A  16      25.861  29.271  -3.940  1.00  0.00    -0.624 OA
ATOM    379  O5'   A A  16      23.939  29.347  -5.533  1.00  0.00    -0.287 OA
ATOM    380  C5'   A A  16      22.962  29.996  -6.345  1.00  0.00     0.216 C 
ATOM    381  C4'   A A  16      22.310  28.999  -7.274  1.00  0.00     0.180 C 
ATOM    382  O4'   A A  16      23.260  28.605  -8.297  1.00  0.00    -0.353 OA
ATOM    383  C1'   A A  16      23.031  27.257  -8.664  1.00  0.00     0.262 C 
ATOM    384  N9    A A  16      24.270  26.507  -8.465  1.00  0.00    -0.294 N 
ATOM    385  C4    A A  16      24.648  25.376  -9.146  1.00  0.00     0.167 A 
ATOM    386  N3    A A  16      23.966  24.744 -10.117  1.00  0.00    -0.222 NA
ATOM    387  C2    A A  16      24.639  23.681 -10.547  1.00  0.00     0.237 A 
ATOM    388  N1    A A  16      25.828  23.213 -10.147  1.00  0.00    -0.222 NA
ATOM    389  C6    A A  16      26.489  23.873  -9.171  1.00  0.00     0.155 A 
ATOM    390  N6    A A  16      27.674  23.408  -8.778  1.00  0.00    -0.382 N 
ATOM    391  H61   A A  16      28.189  23.883  -8.051  1.00  0.00     0.157 HD
ATOM    392  H62   A A  16      28.057  22.578  -9.209  1.00  0.00     0.157 HD
ATOM    393  C5    A A  16      25.880  25.019  -8.630  1.00  0.00     0.149 A 
ATOM    394  N7    A A  16      26.274  25.907  -7.640  1.00  0.00    -0.236 NA
ATOM    395  C8    A A  16      25.287  26.769  -7.580  1.00  0.00     0.214 A 
ATOM    396  C2'   A A  16      21.858  26.735  -7.830  1.00  0.00     0.199 C 
ATOM    397  O2'   A A  16      20.668  26.895  -8.579  1.00  0.00    -0.388 OA
ATOM    398 'HO2   A A  16      20.059  27.388  -8.030  1.00  0.00     0.210 HD
ATOM    399  C3'   A A  16      21.891  27.683  -6.637  1.00  0.00     0.198 C 
ATOM    400  O3'   A A  16      20.625  27.798  -5.992  1.00  0.00    -0.279 OA
ATOM    401  P     U A  17      20.309  26.916  -4.684  1.00  0.00     0.408 P 
ATOM    402  OP1   U A  17      19.090  27.485  -4.055  1.00  0.00    -0.624 OA
ATOM    403  OP2   U A  17      21.555  26.789  -3.884  1.00  0.00    -0.624 OA
ATOM    404  O5'   U A  17      19.943  25.480  -5.267  1.00  0.00    -0.287 OA
ATOM    405  C5'   U A  17      18.857  25.311  -6.177  1.00  0.00     0.216 C 
ATOM    406  C4'   U A  17      18.675  23.846  -6.503  1.00  0.00     0.180 C 
ATOM    407  O4'   U A  17      19.712  23.445  -7.437  1.00  0.00    -0.353 OA
ATOM    408  C1'   U A  17      20.191  22.156  -7.101  1.00  0.00     0.264 C 
ATOM    409  N1    U A  17      21.611  22.272  -6.740  1.00  0.00    -0.280 N 
ATOM    410  C6    U A  17      22.083  23.362  -6.043  1.00  0.00     0.104 A 
ATOM    411  C2    U A  17      22.461  21.251  -7.125  1.00  0.00     0.331 A 
ATOM    412  O2    U A  17      22.081  20.271  -7.741  1.00  0.00    -0.246 OA
ATOM    413  N3    U A  17      23.771  21.419  -6.763  1.00  0.00    -0.275 N 
ATOM    414  H3    U A  17      24.409  20.685  -7.031  1.00  0.00     0.173 HD
ATOM    415  C4    U A  17      24.311  22.478  -6.070  1.00  0.00     0.250 A 
ATOM    416  O4    U A  17      25.518  22.489  -5.827  1.00  0.00    -0.268 OA
ATOM    417  C5    U A  17      23.370  23.492  -5.706  1.00  0.00     0.092 A 
ATOM    418  C2'   U A  17      19.309  21.610  -5.977  1.00  0.00     0.199 C 
ATOM    419  O2'   U A  17      18.237  20.886  -6.554  1.00  0.00    -0.388 OA
ATOM    420 'HO2   U A  17      17.921  20.273  -5.889  1.00  0.00     0.210 HD
ATOM    421  C3'   U A  17      18.819  22.897  -5.321  1.00  0.00     0.198 C 
ATOM    422  O3'   U A  17      17.576  22.726  -4.645  1.00  0.00    -0.279 OA
ATOM    423  P     G A  18      17.532  22.702  -3.037  1.00  0.00     0.408 P 
ATOM    424  OP1   G A  18      16.184  23.175  -2.629  1.00  0.00    -0.624 OA
ATOM    425  OP2   G A  18      18.739  23.388  -2.508  1.00  0.00    -0.624 OA
ATOM    426  O5'   G A  18      17.643  21.154  -2.671  1.00  0.00    -0.287 OA
ATOM    427  C5'   G A  18      16.588  20.247  -2.985  1.00  0.00     0.216 C 
ATOM    428  C4'   G A  18      17.034  18.824  -2.743  1.00  0.00     0.180 C 
ATOM    429  O4'   G A  18      18.119  18.514  -3.661  1.00  0.00    -0.353 OA
ATOM    430  C1'   G A  18      19.116  17.764  -2.990  1.00  0.00     0.262 C 
ATOM    431  N9    G A  18      20.330  18.572  -2.920  1.00  0.00    -0.293 N 
ATOM    432  C4    G A  18      21.622  18.113  -3.002  1.00  0.00     0.187 A 
ATOM    433  N3    G A  18      21.997  16.826  -3.154  1.00  0.00    -0.044 NA
ATOM    434  C2    G A  18      23.311  16.699  -3.199  1.00  0.00     0.703 A 
ATOM    435  N2    G A  18      23.856  15.487  -3.340  1.00  0.00    -0.233 N 
ATOM    436  H21   G A  18      23.253  14.680  -3.410  1.00  0.00     0.174 HD
ATOM    437  H22   G A  18      24.859  15.379  -3.376  1.00  0.00     0.174 HD
ATOM    438  N1    G A  18      24.188  17.748  -3.107  1.00  0.00    -0.153 N 
ATOM    439  H1    G A  18      25.174  17.540  -3.159  1.00  0.00     0.187 HD
ATOM    440  C6    G A  18      23.826  19.081  -2.951  1.00  0.00     0.292 A 
ATOM    441  O6    G A  18      24.701  19.952  -2.880  1.00  0.00    -0.265 OA
ATOM    442  C5    G A  18      22.416  19.235  -2.896  1.00  0.00     0.173 A 
ATOM    443  N7    G A  18      21.639  20.376  -2.748  1.00  0.00    -0.234 NA
ATOM    444  C8    G A  18      20.413  19.934  -2.767  1.00  0.00     0.214 A 
ATOM    445  C2'   G A  18      18.554  17.378  -1.623  1.00  0.00     0.199 C 
ATOM    446  O2'   G A  18      17.852  16.155  -1.754  1.00  0.00    -0.388 OA
ATOM    447 'HO2   G A  18      18.228  15.552  -1.111  1.00  0.00     0.210 HD
ATOM    448  C3'   G A  18      17.604  18.539  -1.358  1.00  0.00     0.198 C 
ATOM    449  O3'   G A  18      16.581  18.199  -0.425  1.00  0.00    -0.279 OA
ATOM    450  P     G A  19      16.955  17.973   1.122  1.00  0.00     0.408 P 
ATOM    451  OP1   G A  19      15.681  17.807   1.868  1.00  0.00    -0.624 OA
ATOM    452  OP2   G A  19      17.910  19.035   1.531  1.00  0.00    -0.624 OA
ATOM    453  O5'   G A  19      17.720  16.574   1.139  1.00  0.00    -0.287 OA
ATOM    454  C5'   G A  19      18.766  16.317   2.075  1.00  0.00     0.216 C 
ATOM    455  C4'   G A  19      19.541  15.087   1.666  1.00  0.00     0.180 C 
ATOM    456  O4'   G A  19      20.316  15.402   0.479  1.00  0.00    -0.353 OA
ATOM    457  C1'   G A  19      21.611  14.841   0.586  1.00  0.00     0.262 C 
ATOM    458  N9    G A  19      22.580  15.932   0.625  1.00  0.00    -0.293 N 
ATOM    459  C4    G A  19      23.938  15.815   0.800  1.00  0.00     0.187 A 
ATOM    460  N3    G A  19      24.621  14.663   0.967  1.00  0.00    -0.044 NA
ATOM    461  C2    G A  19      25.917  14.874   1.110  1.00  0.00     0.703 A 
ATOM    462  N2    G A  19      26.742  13.839   1.285  1.00  0.00    -0.233 N 
ATOM    463  H21   G A  19      26.363  12.903   1.305  1.00  0.00     0.174 HD
ATOM    464  H22   G A  19      27.732  13.990   1.403  1.00  0.00     0.174 HD
ATOM    465  N1    G A  19      26.500  16.115   1.091  1.00  0.00    -0.153 N 
ATOM    466  H1    G A  19      27.500  16.167   1.211  1.00  0.00     0.187 HD
ATOM    467  C6    G A  19      25.820  17.315   0.919  1.00  0.00     0.292 A 
ATOM    468  O6    G A  19      26.445  18.381   0.917  1.00  0.00    -0.265 OA
ATOM    469  C5    G A  19      24.424  17.106   0.764  1.00  0.00     0.173 A 
ATOM    470  N7    G A  19      23.392  18.015   0.570  1.00  0.00    -0.234 NA
ATOM    471  C8    G A  19      22.322  17.274   0.494  1.00  0.00     0.214 A 
ATOM    472  C2'   G A  19      21.634  13.948   1.827  1.00  0.00     0.199 C 
ATOM    473  O2'   G A  19      21.266  12.634   1.447  1.00  0.00    -0.388 OA
ATOM    474 'HO2   G A  19      21.027  12.172   2.251  1.00  0.00     0.210 HD
ATOM    475  C3'   G A  19      20.555  14.595   2.690  1.00  0.00     0.198 C 
ATOM    476  O3'   G A  19      19.960  13.667   3.597  1.00  0.00    -0.279 OA
ATOM    477  P     U A  20      19.902  14.005   5.169  1.00  0.00     0.408 P 
ATOM    478  OP1   U A  20      18.903  13.095   5.784  1.00  0.00    -0.624 OA
ATOM    479  OP2   U A  20      19.750  15.475   5.330  1.00  0.00    -0.624 OA
ATOM    480  O5'   U A  20      21.345  13.590   5.705  1.00  0.00    -0.287 OA
ATOM    481  C5'   U A  20      21.964  12.377   5.279  1.00  0.00     0.216 C 
ATOM    482  C4'   U A  20      23.448  12.418   5.561  1.00  0.00     0.180 C 
ATOM    483  O4'   U A  20      24.016  13.575   4.885  1.00  0.00    -0.353 OA
ATOM    484  C1'   U A  20      24.531  14.483   5.837  1.00  0.00     0.264 C 
ATOM    485  N1    U A  20      24.155  15.844   5.427  1.00  0.00    -0.280 N 
ATOM    486  C6    U A  20      22.838  16.180   5.224  1.00  0.00     0.104 A 
ATOM    487  C2    U A  20      25.162  16.774   5.260  1.00  0.00     0.331 A 
ATOM    488  O2    U A  20      26.341  16.511   5.424  1.00  0.00    -0.246 OA
ATOM    489  N3    U A  20      24.736  18.025   4.892  1.00  0.00    -0.275 N 
ATOM    490  H3    U A  20      25.444  18.726   4.743  1.00  0.00     0.173 HD
ATOM    491  C4    U A  20      23.440  18.431   4.678  1.00  0.00     0.250 A 
ATOM    492  O4    U A  20      23.216  19.597   4.356  1.00  0.00    -0.268 OA
ATOM    493  C5    U A  20      22.460  17.409   4.865  1.00  0.00     0.092 A 
ATOM    494  C2'   U A  20      23.968  14.080   7.199  1.00  0.00     0.199 C 
ATOM    495  O2'   U A  20      24.924  14.396   8.194  1.00  0.00    -0.388 OA
ATOM    496 'HO2   U A  20      25.501  13.635   8.270  1.00  0.00     0.210 HD
ATOM    497  C3'   U A  20      23.826  12.572   7.031  1.00  0.00     0.198 C 
ATOM    498  O3'   U A  20      25.034  11.879   7.336  1.00  0.00    -0.279 OA
ATOM    499  P     U A  21      24.975  10.349   7.829  1.00  0.00     0.408 P 
ATOM    500  OP1   U A  21      23.985  10.275   8.934  1.00  0.00    -0.624 OA
ATOM    501  OP2   U A  21      26.366   9.884   8.059  1.00  0.00    -0.624 OA
ATOM    502  O5'   U A  21      24.385   9.564   6.573  1.00  0.00    -0.287 OA
ATOM    503  C5'   U A  21      23.829   8.258   6.716  1.00  0.00     0.216 C 
ATOM    504  C4'   U A  21      23.644   7.619   5.358  1.00  0.00     0.180 C 
ATOM    505  O4'   U A  21      24.799   7.926   4.531  1.00  0.00    -0.353 OA
ATOM    506  C1'   U A  21      25.597   6.768   4.369  1.00  0.00     0.264 C 
ATOM    507  N1    U A  21      26.992   7.125   4.667  1.00  0.00    -0.280 N 
ATOM    508  C6    U A  21      27.294   8.091   5.599  1.00  0.00     0.104 A 
ATOM    509  C2    U A  21      27.991   6.462   3.978  1.00  0.00     0.331 A 
ATOM    510  O2    U A  21      27.766   5.602   3.146  1.00  0.00    -0.246 OA
ATOM    511  N3    U A  21      29.268   6.844   4.300  1.00  0.00    -0.275 N 
ATOM    512  H3    U A  21      30.013   6.370   3.814  1.00  0.00     0.173 HD
ATOM    513  C4    U A  21      29.641   7.800   5.218  1.00  0.00     0.250 A 
ATOM    514  O4    U A  21      30.836   8.041   5.386  1.00  0.00    -0.268 OA
ATOM    515  C5    U A  21      28.553   8.437   5.888  1.00  0.00     0.092 A 
ATOM    516  C2'   U A  21      25.028   5.685   5.287  1.00  0.00     0.199 C 
ATOM    517  O2'   U A  21      25.173   4.429   4.651  1.00  0.00    -0.388 OA
ATOM    518 'HO2   U A  21      24.419   4.323   4.067  1.00  0.00     0.210 HD
ATOM    519  C3'   U A  21      23.563   6.098   5.364  1.00  0.00     0.198 C 
ATOM    520  O3'   U A  21      22.800   5.613   4.260  1.00  0.00    -0.279 OA
ATOM    521  P     A A  22      21.219   5.369   4.426  1.00  0.00     0.408 P 
ATOM    522  OP1   A A  22      20.741   6.231   5.539  1.00  0.00    -0.624 OA
ATOM    523  OP2   A A  22      20.976   3.905   4.485  1.00  0.00    -0.624 OA
ATOM    524  O5'   A A  22      20.594   5.917   3.066  1.00  0.00    -0.287 OA
ATOM    525  C5'   A A  22      19.285   6.488   3.032  1.00  0.00     0.216 C 
ATOM    526  C4'   A A  22      19.357   7.980   3.279  1.00  0.00     0.180 C 
ATOM    527  O4'   A A  22      20.706   8.330   3.691  1.00  0.00    -0.353 OA
ATOM    528  C1'   A A  22      21.079   9.565   3.110  1.00  0.00     0.262 C 
ATOM    529  N9    A A  22      22.219   9.333   2.225  1.00  0.00    -0.294 N 
ATOM    530  C4    A A  22      23.338  10.123   2.117  1.00  0.00     0.167 A 
ATOM    531  N3    A A  22      23.608  11.248   2.799  1.00  0.00    -0.222 NA
ATOM    532  C2    A A  22      24.784  11.749   2.432  1.00  0.00     0.237 A 
ATOM    533  N1    A A  22      25.658  11.285   1.526  1.00  0.00    -0.222 NA
ATOM    534  C6    A A  22      25.355  10.151   0.859  1.00  0.00     0.155 A 
ATOM    535  N6    A A  22      26.222   9.692  -0.043  1.00  0.00    -0.382 N 
ATOM    536  H61   A A  22      26.014   8.846  -0.555  1.00  0.00     0.157 HD
ATOM    537  H62   A A  22      27.082  10.190  -0.215  1.00  0.00     0.157 HD
ATOM    538  C5    A A  22      24.133   9.523   1.158  1.00  0.00     0.149 A 
ATOM    539  N7    A A  22      23.528   8.372   0.671  1.00  0.00    -0.236 NA
ATOM    540  C8    A A  22      22.401   8.303   1.335  1.00  0.00     0.214 A 
ATOM    541  C2'   A A  22      19.855  10.130   2.392  1.00  0.00     0.199 C 
ATOM    542  O2'   A A  22      19.135  10.947   3.297  1.00  0.00    -0.388 OA
ATOM    543 'HO2   A A  22      18.843  11.718   2.808  1.00  0.00     0.210 HD
ATOM    544  C3'   A A  22      19.089   8.855   2.062  1.00  0.00     0.198 C 
ATOM    545  O3'   A A  22      17.695   9.089   1.882  1.00  0.00    -0.279 OA
ATOM    546  P     U A  23      17.178   9.850   0.562  1.00  0.00     0.408 P 
ATOM    547  OP1   U A  23      17.571  11.276   0.692  1.00  0.00    -0.624 OA
ATOM    548  OP2   U A  23      15.750   9.501   0.351  1.00  0.00    -0.624 OA
ATOM    549  O5'   U A  23      18.029   9.195  -0.615  1.00  0.00    -0.287 OA
ATOM    550  C5'   U A  23      17.901   9.652  -1.962  1.00  0.00     0.216 C 
ATOM    551  C4'   U A  23      18.573  10.996  -2.125  1.00  0.00     0.180 C 
ATOM    552  O4'   U A  23      19.820  10.990  -1.390  1.00  0.00    -0.353 OA
ATOM    553  C1'   U A  23      20.757  11.827  -2.038  1.00  0.00     0.264 C 
ATOM    554  N1    U A  23      22.002  11.066  -2.221  1.00  0.00    -0.280 N 
ATOM    555  C6    U A  23      21.997   9.688  -2.248  1.00  0.00     0.104 A 
ATOM    556  C2    U A  23      23.179  11.778  -2.362  1.00  0.00     0.331 A 
ATOM    557  O2    U A  23      23.224  12.994  -2.351  1.00  0.00    -0.246 OA
ATOM    558  N3    U A  23      24.305  11.011  -2.521  1.00  0.00    -0.275 N 
ATOM    559  H3    U A  23      25.175  11.510  -2.621  1.00  0.00     0.173 HD
ATOM    560  C4    U A  23      24.374   9.637  -2.554  1.00  0.00     0.250 A 
ATOM    561  O4    U A  23      25.468   9.090  -2.692  1.00  0.00    -0.268 OA
ATOM    562  C5    U A  23      23.116   8.974  -2.407  1.00  0.00     0.092 A 
ATOM    563  C2'   U A  23      20.137  12.327  -3.348  1.00  0.00     0.199 C 
ATOM    564  O2'   U A  23      19.666  13.646  -3.145  1.00  0.00    -0.388 OA
ATOM    565 'HO2   U A  23      18.721  13.634  -3.295  1.00  0.00     0.210 HD
ATOM    566  C3'   U A  23      18.976  11.354  -3.548  1.00  0.00     0.198 C 
ATOM    567  O3'   U A  23      17.888  11.948  -4.251  1.00  0.00    -0.279 OA
ATOM    568  P     C A  24      17.791  11.800  -5.849  1.00  0.00     0.408 P 
ATOM    569  OP1   C A  24      17.119  10.507  -6.134  1.00  0.00    -0.624 OA
ATOM    570  OP2   C A  24      19.128  12.076  -6.433  1.00  0.00    -0.624 OA
ATOM    571  O5'   C A  24      16.800  12.969  -6.283  1.00  0.00    -0.287 OA
ATOM    572  C5'   C A  24      16.905  14.274  -5.716  1.00  0.00     0.216 C 
ATOM    573  C4'   C A  24      16.207  15.284  -6.596  1.00  0.00     0.180 C 
ATOM    574  O4'   C A  24      16.742  15.181  -7.946  1.00  0.00    -0.353 OA
ATOM    575  C1'   C A  24      15.690  15.283  -8.889  1.00  0.00     0.264 C 
ATOM    576  N1    C A  24      15.564  13.991  -9.585  1.00  0.00    -0.278 N 
ATOM    577  C6    C A  24      15.759  12.815  -8.916  1.00  0.00     0.102 A 
ATOM    578  C2    C A  24      15.240  13.985 -10.944  1.00  0.00     0.352 A 
ATOM    579  O2    C A  24      15.073  15.065 -11.526  1.00  0.00    -0.244 OA
ATOM    580  N3    C A  24      15.118  12.802 -11.588  1.00  0.00    -0.177 NA
ATOM    581  C4    C A  24      15.308  11.660 -10.926  1.00  0.00     0.128 A 
ATOM    582  N4    C A  24      15.175  10.521 -11.603  1.00  0.00    -0.384 N 
ATOM    583  H41   C A  24      15.310   9.636 -11.137  1.00  0.00     0.157 HD
ATOM    584  H42   C A  24      14.937  10.552 -12.584  1.00  0.00     0.157 HD
ATOM    585  C5    C A  24      15.644  11.637  -9.542  1.00  0.00     0.067 A 
ATOM    586  C2'   C A  24      14.431  15.693  -8.126  1.00  0.00     0.199 C 
ATOM    587  O2'   C A  24      14.382  17.107  -8.055  1.00  0.00    -0.388 OA
ATOM    588 'HO2   C A  24      14.439  17.343  -7.129  1.00  0.00     0.210 HD
ATOM    589  C3'   C A  24      14.705  15.083  -6.756  1.00  0.00     0.198 C 
ATOM    590  O3'   C A  24      13.972  15.733  -5.722  1.00  0.00    -0.279 OA
ATOM    591  P     A A  25      12.550  15.141  -5.257  1.00  0.00     0.408 P 
ATOM    592  OP1   A A  25      12.002  16.054  -4.221  1.00  0.00    -0.624 OA
ATOM    593  OP2   A A  25      12.724  13.699  -4.948  1.00  0.00    -0.624 OA
ATOM    594  O5'   A A  25      11.636  15.262  -6.558  1.00  0.00    -0.287 OA
ATOM    595  C5'   A A  25      11.196  16.534  -7.033  1.00  0.00     0.216 C 
ATOM    596  C4'   A A  25       9.910  16.383  -7.814  1.00  0.00     0.180 C 
ATOM    597  O4'   A A  25      10.234  15.901  -9.149  1.00  0.00    -0.353 OA
ATOM    598  C1'   A A  25       9.356  14.851  -9.506  1.00  0.00     0.262 C 
ATOM    599  N9    A A  25      10.118  13.604  -9.525  1.00  0.00    -0.294 N 
ATOM    600  C4    A A  25       9.759  12.441 -10.163  1.00  0.00     0.167 A 
ATOM    601  N3    A A  25       8.652  12.218 -10.890  1.00  0.00    -0.222 NA
ATOM    602  C2    A A  25       8.640  10.972 -11.357  1.00  0.00     0.237 A 
ATOM    603  N1    A A  25       9.542   9.996 -11.191  1.00  0.00    -0.222 NA
ATOM    604  C6    A A  25      10.643  10.253 -10.453  1.00  0.00     0.155 A 
ATOM    605  N6    A A  25      11.537   9.280 -10.283  1.00  0.00    -0.382 N 
ATOM    606  H61   A A  25      12.366   9.453  -9.731  1.00  0.00     0.157 HD
ATOM    607  H62   A A  25      11.380   8.375 -10.700  1.00  0.00     0.157 HD
ATOM    608  C5    A A  25      10.776  11.539  -9.902  1.00  0.00     0.149 A 
ATOM    609  N7    A A  25      11.759  12.122  -9.115  1.00  0.00    -0.236 NA
ATOM    610  C8    A A  25      11.322  13.342  -8.919  1.00  0.00     0.214 A 
ATOM    611  C2'   A A  25       8.211  14.857  -8.497  1.00  0.00     0.199 C 
ATOM    612  O2'   A A  25       7.221  15.768  -8.940  1.00  0.00    -0.388 OA
ATOM    613 'HO2   A A  25       6.441  15.623  -8.402  1.00  0.00     0.210 HD
ATOM    614  C3'   A A  25       8.922  15.368  -7.250  1.00  0.00     0.198 C 
ATOM    615  O3'   A A  25       8.026  15.976  -6.322  1.00  0.00    -0.279 OA
ATOM    616  P     C A  26       6.943  15.073  -5.549  1.00  0.00     0.408 P 
ATOM    617  OP1   C A  26       6.564  15.799  -4.309  1.00  0.00    -0.624 OA
ATOM    618  OP2   C A  26       7.462  13.685  -5.456  1.00  0.00    -0.624 OA
ATOM    619  O5'   C A  26       5.681  15.066  -6.521  1.00  0.00    -0.287 OA
ATOM    620  C5'   C A  26       4.578  14.189  -6.289  1.00  0.00     0.216 C 
ATOM    621  C4'   C A  26       3.678  14.150  -7.501  1.00  0.00     0.180 C 
ATOM    622  O4'   C A  26       4.498  13.977  -8.692  1.00  0.00    -0.353 OA
ATOM    623  C1'   C A  26       3.896  13.027  -9.555  1.00  0.00     0.264 C 
ATOM    624  N1    C A  26       4.747  11.825  -9.587  1.00  0.00    -0.278 N 
ATOM    625  C6    C A  26       5.684  11.604  -8.616  1.00  0.00     0.102 A 
ATOM    626  C2    C A  26       4.579  10.906 -10.628  1.00  0.00     0.352 A 
ATOM    627  O2    C A  26       3.724  11.130 -11.497  1.00  0.00    -0.244 OA
ATOM    628  N3    C A  26       5.353   9.798 -10.662  1.00  0.00    -0.177 NA
ATOM    629  C4    C A  26       6.262   9.592  -9.707  1.00  0.00     0.128 A 
ATOM    630  N4    C A  26       7.000   8.486  -9.783  1.00  0.00    -0.384 N 
ATOM    631  H41   C A  26       7.697   8.295  -9.080  1.00  0.00     0.157 HD
ATOM    632  H42   C A  26       6.849   7.843 -10.545  1.00  0.00     0.157 HD
ATOM    633  C5    C A  26       6.454  10.509  -8.635  1.00  0.00     0.067 A 
ATOM    634  C2'   C A  26       2.485  12.773  -9.028  1.00  0.00     0.199 C 
ATOM    635  O2'   C A  26       1.612  13.747  -9.571  1.00  0.00    -0.388 OA
ATOM    636 'HO2   C A  26       1.058  14.048  -8.851  1.00  0.00     0.210 HD
ATOM    637  C3'   C A  26       2.690  12.991  -7.534  1.00  0.00     0.198 C 
ATOM    638  O3'   C A  26       1.476  13.318  -6.859  1.00  0.00    -0.279 OA
ATOM    639  P     G A  27       0.996  12.437  -5.602  1.00  0.00     0.408 P 
ATOM    640  OP1   G A  27      -0.083  13.196  -4.918  1.00  0.00    -0.624 OA
ATOM    641  OP2   G A  27       2.196  12.016  -4.833  1.00  0.00    -0.624 OA
ATOM    642  O5'   G A  27       0.348  11.139  -6.262  1.00  0.00    -0.287 OA
ATOM    643  C5'   G A  27      -0.968  11.174  -6.816  1.00  0.00     0.216 C 
ATOM    644  C4'   G A  27      -1.114  10.119  -7.888  1.00  0.00     0.180 C 
ATOM    645  O4'   G A  27       0.105  10.048  -8.670  1.00  0.00    -0.353 OA
ATOM    646  C1'   G A  27       0.264   8.731  -9.172  1.00  0.00     0.262 C 
ATOM    647  N9    G A  27       1.592   8.249  -8.800  1.00  0.00    -0.293 N 
ATOM    648  C4    G A  27       2.041   6.953  -8.892  1.00  0.00     0.187 A 
ATOM    649  N3    G A  27       1.329   5.899  -9.338  1.00  0.00    -0.044 NA
ATOM    650  C2    G A  27       2.031   4.781  -9.308  1.00  0.00     0.703 A 
ATOM    651  N2    G A  27       1.468   3.640  -9.712  1.00  0.00    -0.233 N 
ATOM    652  H21   G A  27       0.511   3.653 -10.036  1.00  0.00     0.174 HD
ATOM    653  H22   G A  27       1.988   2.777  -9.699  1.00  0.00     0.174 HD
ATOM    654  N1    G A  27       3.330   4.702  -8.876  1.00  0.00    -0.153 N 
ATOM    655  H1    G A  27       3.777   3.797  -8.894  1.00  0.00     0.187 HD
ATOM    656  C6    G A  27       4.086   5.773  -8.414  1.00  0.00     0.292 A 
ATOM    657  O6    G A  27       5.254   5.590  -8.049  1.00  0.00    -0.265 OA
ATOM    658  C5    G A  27       3.342   6.984  -8.437  1.00  0.00     0.173 A 
ATOM    659  N7    G A  27       3.705   8.272  -8.067  1.00  0.00    -0.234 NA
ATOM    660  C8    G A  27       2.637   8.985  -8.298  1.00  0.00     0.214 A 
ATOM    661  C2'   G A  27      -0.876   7.875  -8.610  1.00  0.00     0.199 C 
ATOM    662  O2'   G A  27      -1.914   7.817  -9.571  1.00  0.00    -0.388 OA
ATOM    663 'HO2   G A  27      -2.731   8.009  -9.109  1.00  0.00     0.210 HD
ATOM    664  C3'   G A  27      -1.296   8.692  -7.394  1.00  0.00     0.198 C 
ATOM    665  O3'   G A  27      -2.642   8.429  -7.003  1.00  0.00    -0.279 OA
ATOM    666  P     C A  28      -2.948   7.283  -5.915  1.00  0.00     0.408 P 
ATOM    667  OP1   C A  28      -4.424   7.150  -5.810  1.00  0.00    -0.624 OA
ATOM    668  OP2   C A  28      -2.149   7.571  -4.697  1.00  0.00    -0.624 OA
ATOM    669  O5'   C A  28      -2.373   5.953  -6.582  1.00  0.00    -0.287 OA
ATOM    670  C5'   C A  28      -3.061   5.310  -7.654  1.00  0.00     0.216 C 
ATOM    671  C4'   C A  28      -2.734   3.835  -7.673  1.00  0.00     0.180 C 
ATOM    672  O4'   C A  28      -1.405   3.654  -8.241  1.00  0.00    -0.353 OA
ATOM    673  C1'   C A  28      -0.695   2.679  -7.498  1.00  0.00     0.264 C 
ATOM    674  N1    C A  28       0.407   3.346  -6.785  1.00  0.00    -0.278 N 
ATOM    675  C6    C A  28       0.423   4.704  -6.633  1.00  0.00     0.102 A 
ATOM    676  C2    C A  28       1.440   2.567  -6.262  1.00  0.00     0.352 A 
ATOM    677  O2    C A  28       1.402   1.336  -6.410  1.00  0.00    -0.244 OA
ATOM    678  N3    C A  28       2.458   3.169  -5.609  1.00  0.00    -0.177 NA
ATOM    679  C4    C A  28       2.466   4.495  -5.469  1.00  0.00     0.128 A 
ATOM    680  N4    C A  28       3.492   5.045  -4.821  1.00  0.00    -0.384 N 
ATOM    681  H41   C A  28       3.538   6.045  -4.693  1.00  0.00     0.157 HD
ATOM    682  H42   C A  28       4.225   4.454  -4.456  1.00  0.00     0.157 HD
ATOM    683  C5    C A  28       1.425   5.316  -5.989  1.00  0.00     0.067 A 
ATOM    684  C2'   C A  28      -1.704   2.005  -6.571  1.00  0.00     0.199 C 
ATOM    685  O2'   C A  28      -2.341   0.956  -7.277  1.00  0.00    -0.388 OA
ATOM    686 'HO2   C A  28      -3.240   0.906  -6.951  1.00  0.00     0.210 HD
ATOM    687  C3'   C A  28      -2.661   3.159  -6.309  1.00  0.00     0.198 C 
ATOM    688  O3'   C A  28      -3.940   2.718  -5.865  1.00  0.00    -0.279 OA
ATOM    689  P     U A  29      -4.260   2.651  -4.290  1.00  0.00     0.408 P 
ATOM    690  OP1   U A  29      -5.714   2.387  -4.141  1.00  0.00    -0.624 OA
ATOM    691  OP2   U A  29      -3.660   3.843  -3.637  1.00  0.00    -0.624 OA
ATOM    692  O5'   U A  29      -3.467   1.361  -3.790  1.00  0.00    -0.287 OA
ATOM    693  C5'   U A  29      -3.798   0.062  -4.278  1.00  0.00     0.216 C 
ATOM    694  C4'   U A  29      -2.732  -0.934  -3.883  1.00  0.00     0.180 C 
ATOM    695  O4'   U A  29      -1.452  -0.501  -4.419  1.00  0.00    -0.353 OA
ATOM    696  C1'   U A  29      -0.419  -0.826  -3.503  1.00  0.00     0.264 C 
ATOM    697  N1    U A  29       0.229   0.420  -3.068  1.00  0.00    -0.280 N 
ATOM    698  C6    U A  29      -0.388   1.642  -3.222  1.00  0.00     0.104 A 
ATOM    699  C2    U A  29       1.481   0.323  -2.491  1.00  0.00     0.331 A 
ATOM    700  O2    U A  29       2.061  -0.736  -2.339  1.00  0.00    -0.246 OA
ATOM    701  N3    U A  29       2.031   1.515  -2.097  1.00  0.00    -0.275 N 
ATOM    702  H3    U A  29       2.944   1.461  -1.671  1.00  0.00     0.173 HD
ATOM    703  C4    U A  29       1.474   2.766  -2.220  1.00  0.00     0.250 A 
ATOM    704  O4    U A  29       2.097   3.746  -1.809  1.00  0.00    -0.268 OA
ATOM    705  C5    U A  29       0.182   2.784  -2.829  1.00  0.00     0.092 A 
ATOM    706  C2'   U A  29      -1.053  -1.610  -2.355  1.00  0.00     0.199 C 
ATOM    707  O2'   U A  29      -1.013  -2.989  -2.670  1.00  0.00    -0.388 OA
ATOM    708 'HO2   U A  29      -1.211  -3.469  -1.865  1.00  0.00     0.210 HD
ATOM    709  C3'   U A  29      -2.477  -1.071  -2.388  1.00  0.00     0.198 C 
ATOM    710  O3'   U A  29      -3.410  -1.952  -1.767  1.00  0.00    -0.279 OA
ATOM    711  P     U A  30      -3.659  -1.863  -0.180  1.00  0.00     0.408 P 
ATOM    712  OP1   U A  30      -4.844  -2.700   0.132  1.00  0.00    -0.624 OA
ATOM    713  OP2   U A  30      -3.644  -0.433   0.221  1.00  0.00    -0.624 OA
ATOM    714  O5'   U A  30      -2.373  -2.561   0.454  1.00  0.00    -0.287 OA
ATOM    715  C5'   U A  30      -2.335  -3.971   0.675  1.00  0.00     0.216 C 
ATOM    716  C4'   U A  30      -1.007  -4.370   1.279  1.00  0.00     0.180 C 
ATOM    717  O4'   U A  30       0.068  -3.718   0.545  1.00  0.00    -0.353 OA
ATOM    718  C1'   U A  30       1.076  -3.295   1.449  1.00  0.00     0.264 C 
ATOM    719  N1    U A  30       1.122  -1.826   1.443  1.00  0.00    -0.280 N 
ATOM    720  C6    U A  30       0.080  -1.083   0.935  1.00  0.00     0.104 A 
ATOM    721  C2    U A  30       2.245  -1.212   1.965  1.00  0.00     0.331 A 
ATOM    722  O2    U A  30       3.187  -1.832   2.423  1.00  0.00    -0.246 OA
ATOM    723  N3    U A  30       2.225   0.158   1.930  1.00  0.00    -0.275 N 
ATOM    724  H3    U A  30       3.035   0.626   2.311  1.00  0.00     0.173 HD
ATOM    725  C4    U A  30       1.222   0.961   1.437  1.00  0.00     0.250 A 
ATOM    726  O4    U A  30       1.353   2.183   1.476  1.00  0.00    -0.268 OA
ATOM    727  C5    U A  30       0.097   0.252   0.915  1.00  0.00     0.092 A 
ATOM    728  C2'   U A  30       0.731  -3.888   2.814  1.00  0.00     0.199 C 
ATOM    729  O2'   U A  30       1.290  -5.187   2.900  1.00  0.00    -0.388 OA
ATOM    730 'HO2   U A  30       0.642  -5.738   3.339  1.00  0.00     0.210 HD
ATOM    731  C3'   U A  30      -0.788  -3.944   2.724  1.00  0.00     0.198 C 
ATOM    732  O3'   U A  30      -1.356  -4.873   3.643  1.00  0.00    -0.279 OA
ATOM    733  P     C A  31      -1.831  -4.369   5.095  1.00  0.00     0.408 P 
ATOM    734  OP1   C A  31      -2.398  -5.541   5.810  1.00  0.00    -0.624 OA
ATOM    735  OP2   C A  31      -2.655  -3.146   4.921  1.00  0.00    -0.624 OA
ATOM    736  O5'   C A  31      -0.474  -3.952   5.821  1.00  0.00    -0.287 OA
ATOM    737  C5'   C A  31       0.540  -4.916   6.094  1.00  0.00     0.216 C 
ATOM    738  C4'   C A  31       1.755  -4.243   6.688  1.00  0.00     0.180 C 
ATOM    739  O4'   C A  31       2.307  -3.312   5.720  1.00  0.00    -0.353 OA
ATOM    740  C1'   C A  31       2.866  -2.199   6.397  1.00  0.00     0.264 C 
ATOM    741  N1    C A  31       2.212  -0.975   5.903  1.00  0.00    -0.278 N 
ATOM    742  C6    C A  31       1.021  -1.035   5.233  1.00  0.00     0.102 A 
ATOM    743  C2    C A  31       2.831   0.256   6.132  1.00  0.00     0.352 A 
ATOM    744  O2    C A  31       3.909   0.284   6.742  1.00  0.00    -0.244 OA
ATOM    745  N3    C A  31       2.242   1.386   5.684  1.00  0.00    -0.177 NA
ATOM    746  C4    C A  31       1.083   1.319   5.028  1.00  0.00     0.128 A 
ATOM    747  N4    C A  31       0.543   2.460   4.604  1.00  0.00    -0.384 N 
ATOM    748  H41   C A  31      -0.334   2.456   4.103  1.00  0.00     0.157 HD
ATOM    749  H42   C A  31       1.018   3.334   4.786  1.00  0.00     0.157 HD
ATOM    750  C5    C A  31       0.428   0.077   4.780  1.00  0.00     0.067 A 
ATOM    751  C2'   C A  31       2.681  -2.426   7.899  1.00  0.00     0.199 C 
ATOM    752  O2'   C A  31       3.844  -3.047   8.411  1.00  0.00    -0.388 OA
ATOM    753 'HO2   C A  31       3.550  -3.793   8.934  1.00  0.00     0.210 HD
ATOM    754  C3'   C A  31       1.495  -3.384   7.915  1.00  0.00     0.198 C 
ATOM    755  O3'   C A  31       1.442  -4.166   9.104  1.00  0.00    -0.279 OA
ATOM    756  P     C A  32       0.595  -3.643  10.368  1.00  0.00     0.408 P 
ATOM    757  OP1   C A  32       0.575  -4.739  11.369  1.00  0.00    -0.624 OA
ATOM    758  OP2   C A  32      -0.686  -3.075   9.875  1.00  0.00    -0.624 OA
ATOM    759  O5'   C A  32       1.474  -2.450  10.954  1.00  0.00    -0.287 OA
ATOM    760  C5'   C A  32       2.732  -2.701  11.580  1.00  0.00     0.216 C 
ATOM    761  C4'   C A  32       3.280  -1.428  12.180  1.00  0.00     0.180 C 
ATOM    762  O4'   C A  32       3.720  -0.551  11.109  1.00  0.00    -0.353 OA
ATOM    763  C1'   C A  32       3.468   0.798  11.466  1.00  0.00     0.264 C 
ATOM    764  N1    C A  32       2.569   1.385  10.459  1.00  0.00    -0.278 N 
ATOM    765  C6    C A  32       1.679   0.605   9.772  1.00  0.00     0.102 A 
ATOM    766  C2    C A  32       2.637   2.756  10.214  1.00  0.00     0.352 A 
ATOM    767  O2    C A  32       3.451   3.440  10.849  1.00  0.00    -0.244 OA
ATOM    768  N3    C A  32       1.815   3.307   9.293  1.00  0.00    -0.177 NA
ATOM    769  C4    C A  32       0.954   2.539   8.625  1.00  0.00     0.128 A 
ATOM    770  N4    C A  32       0.168   3.125   7.724  1.00  0.00    -0.384 N 
ATOM    771  H41   C A  32      -0.498   2.582   7.195  1.00  0.00     0.157 HD
ATOM    772  H42   C A  32       0.241   4.123   7.575  1.00  0.00     0.157 HD
ATOM    773  C5    C A  32       0.861   1.135   8.854  1.00  0.00     0.067 A 
ATOM    774  C2'   C A  32       2.892   0.806  12.883  1.00  0.00     0.199 C 
ATOM    775  O2'   C A  32       3.957   0.954  13.804  1.00  0.00    -0.388 OA
ATOM    776 'HO2   C A  32       3.837   0.284  14.477  1.00  0.00     0.210 HD
ATOM    777  C3'   C A  32       2.285  -0.590  12.968  1.00  0.00     0.198 C 
ATOM    778  O3'   C A  32       2.161  -1.049  14.311  1.00  0.00    -0.279 OA
ATOM    779  P     U A  33       0.817  -0.744  15.139  1.00  0.00     0.408 P 
ATOM    780  OP1   U A  33       0.982  -1.340  16.489  1.00  0.00    -0.624 OA
ATOM    781  OP2   U A  33      -0.347  -1.132  14.303  1.00  0.00    -0.624 OA
ATOM    782  O5'   U A  33       0.810   0.842  15.289  1.00  0.00    -0.287 OA
ATOM    783  C5'   U A  33       1.790   1.511  16.083  1.00  0.00     0.216 C 
ATOM    784  C4'   U A  33       1.373   2.943  16.326  1.00  0.00     0.180 C 
ATOM    785  O4'   U A  33       1.687   3.728  15.146  1.00  0.00    -0.353 OA
ATOM    786  C1'   U A  33       0.667   4.682  14.919  1.00  0.00     0.264 C 
ATOM    787  N1    U A  33       0.078   4.419  13.598  1.00  0.00    -0.280 N 
ATOM    788  C6    U A  33      -0.160   3.133  13.166  1.00  0.00     0.104 A 
ATOM    789  C2    U A  33      -0.228   5.507  12.798  1.00  0.00     0.331 A 
ATOM    790  O2    U A  33      -0.034   6.658  13.144  1.00  0.00    -0.246 OA
ATOM    791  N3    U A  33      -0.768   5.194  11.577  1.00  0.00    -0.275 N 
ATOM    792  H3    U A  33      -1.010   5.972  10.982  1.00  0.00     0.173 HD
ATOM    793  C4    U A  33      -1.029   3.936  11.083  1.00  0.00     0.250 A 
ATOM    794  O4    U A  33      -1.511   3.817   9.957  1.00  0.00    -0.268 OA
ATOM    795  C5    U A  33      -0.688   2.867  11.969  1.00  0.00     0.092 A 
ATOM    796  C2'   U A  33      -0.334   4.588  16.072  1.00  0.00     0.199 C 
ATOM    797  O2'   U A  33       0.037   5.519  17.072  1.00  0.00    -0.388 OA
ATOM    798 'HO2   U A  33       0.205   5.016  17.869  1.00  0.00     0.210 HD
ATOM    799  C3'   U A  33      -0.116   3.155  16.551  1.00  0.00     0.198 C 
ATOM    800  O3'   U A  33      -0.454   2.980  17.924  1.00  0.00    -0.279 OA
ATOM    801  P     U A  34      -1.999   2.893  18.367  1.00  0.00     0.408 P 
ATOM    802  OP1   U A  34      -2.182   1.597  19.067  1.00  0.00    -0.624 OA
ATOM    803  OP2   U A  34      -2.852   3.220  17.194  1.00  0.00    -0.624 OA
ATOM    804  O5'   U A  34      -2.150   4.055  19.446  1.00  0.00    -0.287 OA
ATOM    805  C5'   U A  34      -2.248   5.424  19.050  1.00  0.00     0.216 C 
ATOM    806  C4'   U A  34      -3.631   5.960  19.349  1.00  0.00     0.180 C 
ATOM    807  O4'   U A  34      -4.543   4.840  19.531  1.00  0.00    -0.353 OA
ATOM    808  C1'   U A  34      -5.398   5.091  20.631  1.00  0.00     0.264 C 
ATOM    809  N1    U A  34      -5.088   4.122  21.694  1.00  0.00    -0.280 N 
ATOM    810  C6    U A  34      -3.943   3.358  21.654  1.00  0.00     0.104 A 
ATOM    811  C2    U A  34      -5.987   4.005  22.738  1.00  0.00     0.331 A 
ATOM    812  O2    U A  34      -7.010   4.660  22.809  1.00  0.00    -0.246 OA
ATOM    813  N3    U A  34      -5.642   3.089  23.698  1.00  0.00    -0.275 N 
ATOM    814  H3    U A  34      -6.283   2.987  24.471  1.00  0.00     0.173 HD
ATOM    815  C4    U A  34      -4.519   2.295  23.723  1.00  0.00     0.250 A 
ATOM    816  O4    U A  34      -4.349   1.518  24.661  1.00  0.00    -0.268 OA
ATOM    817  C5    U A  34      -3.641   2.474  22.610  1.00  0.00     0.092 A 
ATOM    818  C2'   U A  34      -5.193   6.547  21.047  1.00  0.00     0.199 C 
ATOM    819  O2'   U A  34      -6.076   7.362  20.300  1.00  0.00    -0.388 OA
ATOM    820 'HO2   U A  34      -5.535   7.952  19.772  1.00  0.00     0.210 HD
ATOM    821  C3'   U A  34      -3.746   6.775  20.630  1.00  0.00     0.198 C 
ATOM    822  O3'   U A  34      -3.464   8.152  20.396  1.00  0.00    -0.279 OA
ATOM    823  P     A A  35      -3.024   9.098  21.620  1.00  0.00     0.408 P 
ATOM    824  OP1   A A  35      -1.546   9.010  21.735  1.00  0.00    -0.624 OA
ATOM    825  OP2   A A  35      -3.870   8.773  22.796  1.00  0.00    -0.624 OA
ATOM    826  O5'   A A  35      -3.397  10.567  21.128  1.00  0.00    -0.287 OA
ATOM    827  C5'   A A  35      -3.153  10.977  19.783  1.00  0.00     0.216 C 
ATOM    828  C4'   A A  35      -3.971  12.204  19.456  1.00  0.00     0.180 C 
ATOM    829  O4'   A A  35      -5.382  11.854  19.543  1.00  0.00    -0.353 OA
ATOM    830  C1'   A A  35      -6.000  12.616  20.561  1.00  0.00     0.262 C 
ATOM    831  N9    A A  35      -6.952  11.759  21.267  1.00  0.00    -0.294 N 
ATOM    832  C4    A A  35      -8.254  12.071  21.571  1.00  0.00     0.167 A 
ATOM    833  N3    A A  35      -8.907  13.211  21.287  1.00  0.00    -0.222 NA
ATOM    834  C2    A A  35     -10.159  13.160  21.735  1.00  0.00     0.237 A 
ATOM    835  N1    A A  35     -10.785  12.171  22.388  1.00  0.00    -0.222 NA
ATOM    836  C6    A A  35     -10.100  11.041  22.660  1.00  0.00     0.155 A 
ATOM    837  N6    A A  35     -10.725  10.060  23.313  1.00  0.00    -0.382 N 
ATOM    838  H61   A A  35     -10.231   9.205  23.527  1.00  0.00     0.157 HD
ATOM    839  H62   A A  35     -11.686  10.175  23.596  1.00  0.00     0.157 HD
ATOM    840  C5    A A  35      -8.761  10.969  22.235  1.00  0.00     0.149 A 
ATOM    841  N7    A A  35      -7.797   9.977  22.348  1.00  0.00    -0.236 NA
ATOM    842  C8    A A  35      -6.744  10.493  21.760  1.00  0.00     0.214 A 
ATOM    843  C2'   A A  35      -4.879  13.160  21.441  1.00  0.00     0.199 C 
ATOM    844  O2'   A A  35      -5.301  14.384  22.014  1.00  0.00    -0.388 OA
ATOM    845 'HO2   A A  35      -5.282  15.036  21.312  1.00  0.00     0.210 HD
ATOM    846  C3'   A A  35      -3.783  13.384  20.406  1.00  0.00     0.198 C 
ATOM    847  O3'   A A  35      -3.933  14.632  19.733  1.00  0.00    -0.279 OA
ATOM    848  P     G A  36      -2.665  15.318  19.016  1.00  0.00     0.408 P 
ATOM    849  OP1   G A  36      -1.446  14.559  19.397  1.00  0.00    -0.624 OA
ATOM    850  OP2   G A  36      -2.730  16.779  19.282  1.00  0.00    -0.624 OA
ATOM    851  O5'   G A  36      -2.933  15.092  17.461  1.00  0.00    -0.287 OA
ATOM    852  C5'   G A  36      -2.201  14.117  16.716  1.00  0.00     0.216 C 
ATOM    853  C4'   G A  36      -3.013  13.652  15.529  1.00  0.00     0.180 C 
ATOM    854  O4'   G A  36      -4.178  12.935  16.020  1.00  0.00    -0.353 OA
ATOM    855  C1'   G A  36      -5.329  13.337  15.302  1.00  0.00     0.262 C 
ATOM    856  N9    G A  36      -6.206  14.069  16.211  1.00  0.00    -0.293 N 
ATOM    857  C4    G A  36      -7.453  14.574  15.920  1.00  0.00     0.187 A 
ATOM    858  N3    G A  36      -8.088  14.483  14.734  1.00  0.00    -0.044 NA
ATOM    859  C2    G A  36      -9.271  15.067  14.763  1.00  0.00     0.703 A 
ATOM    860  N2    G A  36     -10.033  15.076  13.665  1.00  0.00    -0.233 N 
ATOM    861  H21   G A  36      -9.687  14.635  12.825  1.00  0.00     0.174 HD
ATOM    862  H22   G A  36     -10.934  15.529  13.670  1.00  0.00     0.174 HD
ATOM    863  N1    G A  36      -9.797  15.687  15.868  1.00  0.00    -0.153 N 
ATOM    864  H1    G A  36     -10.712  16.103  15.786  1.00  0.00     0.187 HD
ATOM    865  C6    G A  36      -9.164  15.790  17.101  1.00  0.00     0.292 A 
ATOM    866  O6    G A  36      -9.729  16.370  18.035  1.00  0.00    -0.265 OA
ATOM    867  C5    G A  36      -7.886  15.171  17.086  1.00  0.00     0.173 A 
ATOM    868  N7    G A  36      -6.933  15.049  18.087  1.00  0.00    -0.234 NA
ATOM    869  C8    G A  36      -5.957  14.390  17.523  1.00  0.00     0.214 A 
ATOM    870  C2'   G A  36      -4.855  14.155  14.101  1.00  0.00     0.199 C 
ATOM    871  O2'   G A  36      -4.591  13.271  13.027  1.00  0.00    -0.388 OA
ATOM    872 'HO2   G A  36      -3.874  13.655  12.520  1.00  0.00     0.210 HD
ATOM    873  C3'   G A  36      -3.568  14.764  14.645  1.00  0.00     0.198 C 
ATOM    874  O3'   G A  36      -2.654  15.108  13.606  1.00  0.00    -0.279 OA
ATOM    875  P     C A  37      -2.623  16.611  13.033  1.00  0.00     0.408 P 
ATOM    876  OP1   C A  37      -1.806  16.606  11.793  1.00  0.00    -0.624 OA
ATOM    877  OP2   C A  37      -2.259  17.524  14.147  1.00  0.00    -0.624 OA
ATOM    878  O5'   C A  37      -4.138  16.903  12.631  1.00  0.00    -0.287 OA
ATOM    879  C5'   C A  37      -4.716  16.326  11.459  1.00  0.00     0.216 C 
ATOM    880  C4'   C A  37      -6.070  16.940  11.191  1.00  0.00     0.180 C 
ATOM    881  O4'   C A  37      -7.009  16.457  12.189  1.00  0.00    -0.353 OA
ATOM    882  C1'   C A  37      -7.850  17.516  12.610  1.00  0.00     0.264 C 
ATOM    883  N1    C A  37      -7.590  17.776  14.035  1.00  0.00    -0.278 N 
ATOM    884  C6    C A  37      -6.345  17.583  14.567  1.00  0.00     0.102 A 
ATOM    885  C2    C A  37      -8.639  18.226  14.842  1.00  0.00     0.352 A 
ATOM    886  O2    C A  37      -9.758  18.389  14.334  1.00  0.00    -0.244 OA
ATOM    887  N3    C A  37      -8.409  18.467  16.151  1.00  0.00    -0.177 NA
ATOM    888  C4    C A  37      -7.193  18.273  16.662  1.00  0.00     0.128 A 
ATOM    889  N4    C A  37      -7.016  18.518  17.958  1.00  0.00    -0.384 N 
ATOM    890  H41   C A  37      -6.111  18.383  18.384  1.00  0.00     0.157 HD
ATOM    891  H42   C A  37      -7.798  18.835  18.514  1.00  0.00     0.157 HD
ATOM    892  C5    C A  37      -6.104  17.816  15.864  1.00  0.00     0.067 A 
ATOM    893  C2'   C A  37      -7.574  18.714  11.703  1.00  0.00     0.199 C 
ATOM    894  O2'   C A  37      -8.436  18.642  10.582  1.00  0.00    -0.388 OA
ATOM    895 'HO2   C A  37      -7.897  18.378   9.835  1.00  0.00     0.210 HD
ATOM    896  C3'   C A  37      -6.126  18.458  11.302  1.00  0.00     0.198 C 
ATOM    897  O3'   C A  37      -5.788  19.078  10.065  1.00  0.00    -0.279 OA
ATOM    898  P     A A  38      -5.113  20.537  10.060  1.00  0.00     0.408 P 
ATOM    899  OP1   A A  38      -3.750  20.395  10.632  1.00  0.00    -0.624 OA
ATOM    900  OP2   A A  38      -6.067  21.498  10.668  1.00  0.00    -0.624 OA
ATOM    901  O5'   A A  38      -4.967  20.884   8.510  1.00  0.00    -0.287 OA
ATOM    902  C5'   A A  38      -5.980  20.513   7.574  1.00  0.00     0.216 C 
ATOM    903  C4'   A A  38      -5.458  19.450   6.634  1.00  0.00     0.180 C 
ATOM    904  O4'   A A  38      -4.373  20.017   5.850  1.00  0.00    -0.353 OA
ATOM    905  C1'   A A  38      -3.159  19.364   6.166  1.00  0.00     0.262 C 
ATOM    906  N9    A A  38      -2.110  20.378   6.276  1.00  0.00    -0.294 N 
ATOM    907  C4    A A  38      -1.061  20.563   5.408  1.00  0.00     0.167 A 
ATOM    908  N3    A A  38      -0.788  19.859   4.296  1.00  0.00    -0.222 NA
ATOM    909  C2    A A  38       0.311  20.322   3.706  1.00  0.00     0.237 A 
ATOM    910  N1    A A  38       1.109  21.333   4.074  1.00  0.00    -0.222 NA
ATOM    911  C6    A A  38       0.805  22.020   5.196  1.00  0.00     0.155 A 
ATOM    912  N6    A A  38       1.600  23.026   5.562  1.00  0.00    -0.382 N 
ATOM    913  H61   A A  38       1.390  23.551   6.399  1.00  0.00     0.157 HD
ATOM    914  H62   A A  38       2.409  23.257   5.005  1.00  0.00     0.157 HD
ATOM    915  C5    A A  38      -0.338  21.628   5.914  1.00  0.00     0.149 A 
ATOM    916  N7    A A  38      -0.920  22.106   7.081  1.00  0.00    -0.236 NA
ATOM    917  C8    A A  38      -1.963  21.333   7.251  1.00  0.00     0.214 A 
ATOM    918  C2'   A A  38      -3.395  18.572   7.449  1.00  0.00     0.199 C 
ATOM    919  O2'   A A  38      -2.576  17.417   7.425  1.00  0.00    -0.388 OA
ATOM    920 'HO2   A A  38      -2.986  16.761   7.993  1.00  0.00     0.210 HD
ATOM    921  C3'   A A  38      -4.871  18.212   7.305  1.00  0.00     0.198 C 
ATOM    922  O3'   A A  38      -5.074  17.048   6.510  1.00  0.00    -0.279 OA
ATOM    923  P     U A  39      -5.357  15.632   7.220  1.00  0.00     0.408 P 
ATOM    924  OP1   U A  39      -5.119  14.574   6.204  1.00  0.00    -0.624 OA
ATOM    925  OP2   U A  39      -6.674  15.710   7.902  1.00  0.00    -0.624 OA
ATOM    926  O5'   U A  39      -4.221  15.526   8.334  1.00  0.00    -0.287 OA
ATOM    927  C5'   U A  39      -3.613  14.275   8.651  1.00  0.00     0.216 C 
ATOM    928  C4'   U A  39      -2.420  14.491   9.553  1.00  0.00     0.180 C 
ATOM    929  O4'   U A  39      -2.685  13.866  10.840  1.00  0.00    -0.353 OA
ATOM    930  C1'   U A  39      -1.507  13.238  11.319  1.00  0.00     0.264 C 
ATOM    931  N1    U A  39      -1.742  11.787  11.365  1.00  0.00    -0.280 N 
ATOM    932  C6    U A  39      -2.464  11.149  10.383  1.00  0.00     0.104 A 
ATOM    933  C2    U A  39      -1.206  11.082  12.427  1.00  0.00     0.331 A 
ATOM    934  O2    U A  39      -0.566  11.610  13.319  1.00  0.00    -0.246 OA
ATOM    935  N3    U A  39      -1.449   9.732  12.408  1.00  0.00    -0.275 N 
ATOM    936  H3    U A  39      -1.064   9.197  13.171  1.00  0.00     0.173 HD
ATOM    937  C4    U A  39      -2.156   9.032  11.458  1.00  0.00     0.250 A 
ATOM    938  O4    U A  39      -2.280   7.813  11.574  1.00  0.00    -0.268 OA
ATOM    939  C5    U A  39      -2.680   9.831  10.396  1.00  0.00     0.092 A 
ATOM    940  C2'   U A  39      -0.365  13.646  10.390  1.00  0.00     0.199 C 
ATOM    941  O2'   U A  39       0.194  14.856  10.867  1.00  0.00    -0.388 OA
ATOM    942 'HO2   U A  39      -0.487  15.528  10.797  1.00  0.00     0.210 HD
ATOM    943  C3'   U A  39      -1.118  13.858   9.082  1.00  0.00     0.198 C 
ATOM    944  O3'   U A  39      -0.415  14.706   8.179  1.00  0.00    -0.279 OA
ATOM    945  P     G A  40       0.470  14.062   6.999  1.00  0.00     0.408 P 
ATOM    946  OP1   G A  40       1.044  15.181   6.208  1.00  0.00    -0.624 OA
ATOM    947  OP2   G A  40      -0.346  13.025   6.317  1.00  0.00    -0.624 OA
ATOM    948  O5'   G A  40       1.663  13.331   7.762  1.00  0.00    -0.287 OA
ATOM    949  C5'   G A  40       2.703  14.081   8.388  1.00  0.00     0.216 C 
ATOM    950  C4'   G A  40       3.483  13.203   9.339  1.00  0.00     0.180 C 
ATOM    951  O4'   G A  40       2.564  12.331  10.051  1.00  0.00    -0.353 OA
ATOM    952  C1'   G A  40       3.177  11.074  10.276  1.00  0.00     0.262 C 
ATOM    953  N9    G A  40       2.370  10.043   9.629  1.00  0.00    -0.293 N 
ATOM    954  C4    G A  40       2.531   8.686   9.758  1.00  0.00     0.187 A 
ATOM    955  N3    G A  40       3.466   8.067  10.508  1.00  0.00    -0.044 NA
ATOM    956  C2    G A  40       3.372   6.753  10.430  1.00  0.00     0.703 A 
ATOM    957  N2    G A  40       4.225   5.987  11.113  1.00  0.00    -0.233 N 
ATOM    958  H21   G A  40       4.936   6.422  11.682  1.00  0.00     0.174 HD
ATOM    959  H22   G A  40       4.158   4.979  11.062  1.00  0.00     0.174 HD
ATOM    960  N1    G A  40       2.434   6.095   9.676  1.00  0.00    -0.153 N 
ATOM    961  H1    G A  40       2.449   5.087   9.687  1.00  0.00     0.187 HD
ATOM    962  C6    G A  40       1.462   6.707   8.895  1.00  0.00     0.292 A 
ATOM    963  O6    G A  40       0.663   6.016   8.253  1.00  0.00    -0.265 OA
ATOM    964  C5    G A  40       1.551   8.123   8.967  1.00  0.00     0.173 A 
ATOM    965  N7    G A  40       0.786   9.108   8.356  1.00  0.00    -0.234 NA
ATOM    966  C8    G A  40       1.308  10.227   8.778  1.00  0.00     0.214 A 
ATOM    967  C2'   G A  40       4.606  11.151   9.739  1.00  0.00     0.199 C 
ATOM    968  O2'   G A  40       5.466  11.556  10.787  1.00  0.00    -0.388 OA
ATOM    969 'HO2   G A  40       6.017  12.254  10.433  1.00  0.00     0.210 HD
ATOM    970  C3'   G A  40       4.469  12.244   8.686  1.00  0.00     0.198 C 
ATOM    971  O3'   G A  40       5.713  12.879   8.399  1.00  0.00    -0.279 OA
ATOM    972  P     G A  41       6.677  12.273   7.263  1.00  0.00     0.408 P 
ATOM    973  OP1   G A  41       7.955  13.026   7.322  1.00  0.00    -0.624 OA
ATOM    974  OP2   G A  41       5.919  12.215   5.987  1.00  0.00    -0.624 OA
ATOM    975  O5'   G A  41       6.956  10.780   7.748  1.00  0.00    -0.287 OA
ATOM    976  C5'   G A  41       7.767  10.518   8.893  1.00  0.00     0.216 C 
ATOM    977  C4'   G A  41       8.121   9.050   8.956  1.00  0.00     0.180 C 
ATOM    978  O4'   G A  41       6.930   8.280   9.247  1.00  0.00    -0.353 OA
ATOM    979  C1'   G A  41       7.069   6.981   8.703  1.00  0.00     0.262 C 
ATOM    980  N9    G A  41       5.856   6.662   7.954  1.00  0.00    -0.293 N 
ATOM    981  C4    G A  41       5.382   5.405   7.668  1.00  0.00     0.187 A 
ATOM    982  N3    G A  41       5.955   4.240   8.034  1.00  0.00    -0.044 NA
ATOM    983  C2    G A  41       5.264   3.197   7.612  1.00  0.00     0.703 A 
ATOM    984  N2    G A  41       5.693   1.962   7.888  1.00  0.00    -0.233 N 
ATOM    985  H21   G A  41       6.543   1.839   8.418  1.00  0.00     0.174 HD
ATOM    986  H22   G A  41       5.172   1.158   7.567  1.00  0.00     0.174 HD
ATOM    987  N1    G A  41       4.103   3.286   6.889  1.00  0.00    -0.153 N 
ATOM    988  H1    G A  41       3.656   2.425   6.616  1.00  0.00     0.187 HD
ATOM    989  C6    G A  41       3.494   4.473   6.499  1.00  0.00     0.292 A 
ATOM    990  O6    G A  41       2.444   4.438   5.846  1.00  0.00    -0.265 OA
ATOM    991  C5    G A  41       4.224   5.606   6.946  1.00  0.00     0.173 A 
ATOM    992  N7    G A  41       3.975   6.963   6.781  1.00  0.00    -0.234 NA
ATOM    993  C8    G A  41       4.968   7.547   7.395  1.00  0.00     0.214 A 
ATOM    994  C2'   G A  41       8.341   6.952   7.850  1.00  0.00     0.199 C 
ATOM    995  O2'   G A  41       9.368   6.323   8.595  1.00  0.00    -0.388 OA
ATOM    996 'HO2   G A  41       9.994   5.970   7.960  1.00  0.00     0.210 HD
ATOM    997  C3'   G A  41       8.631   8.440   7.660  1.00  0.00     0.198 C 
ATOM    998  O3'   G A  41      10.019   8.709   7.476  1.00  0.00    -0.279 OA
ATOM    999  P     A A  42      10.740   8.287   6.102  1.00  0.00     0.408 P 
ATOM   1000  OP1   A A  42      12.113   8.850   6.137  1.00  0.00    -0.624 OA
ATOM   1001  OP2   A A  42       9.837   8.624   4.972  1.00  0.00    -0.624 OA
ATOM   1002  O5'   A A  42      10.858   6.701   6.201  1.00  0.00    -0.287 OA
ATOM   1003  C5'   A A  42      10.616   5.870   5.066  1.00  0.00     0.216 C 
ATOM   1004  C4'   A A  42      10.434   4.435   5.502  1.00  0.00     0.180 C 
ATOM   1005  O4'   A A  42       9.159   4.320   6.192  1.00  0.00    -0.353 OA
ATOM   1006  C1'   A A  42       8.490   3.145   5.771  1.00  0.00     0.262 C 
ATOM   1007  N9    A A  42       7.296   3.540   5.023  1.00  0.00    -0.294 N 
ATOM   1008  C4    A A  42       6.369   2.698   4.458  1.00  0.00     0.167 A 
ATOM   1009  N3    A A  42       6.373   1.354   4.472  1.00  0.00    -0.222 NA
ATOM   1010  C2    A A  42       5.312   0.874   3.824  1.00  0.00     0.237 A 
ATOM   1011  N1    A A  42       4.323   1.536   3.210  1.00  0.00    -0.222 NA
ATOM   1012  C6    A A  42       4.351   2.887   3.215  1.00  0.00     0.155 A 
ATOM   1013  N6    A A  42       3.366   3.547   2.605  1.00  0.00    -0.382 N 
ATOM   1014  H61   A A  42       3.367   4.556   2.598  1.00  0.00     0.157 HD
ATOM   1015  H62   A A  42       2.619   3.039   2.150  1.00  0.00     0.157 HD
ATOM   1016  C5    A A  42       5.424   3.517   3.869  1.00  0.00     0.149 A 
ATOM   1017  N7    A A  42       5.749   4.854   4.056  1.00  0.00    -0.236 NA
ATOM   1018  C8    A A  42       6.864   4.813   4.743  1.00  0.00     0.214 A 
ATOM   1019  C2'   A A  42       9.487   2.319   4.960  1.00  0.00     0.199 C 
ATOM   1020  O2'   A A  42      10.218   1.494   5.847  1.00  0.00    -0.388 OA
ATOM   1021 'HO2   A A  42      11.126   1.489   5.539  1.00  0.00     0.210 HD
ATOM   1022  C3'   A A  42      10.368   3.416   4.372  1.00  0.00     0.198 C 
ATOM   1023  O3'   A A  42      11.666   2.940   4.022  1.00  0.00    -0.279 OA
ATOM   1024  P     A A  43      12.034   2.674   2.478  1.00  0.00     0.408 P 
ATOM   1025  OP1   A A  43      13.480   2.340   2.418  1.00  0.00    -0.624 OA
ATOM   1026  OP2   A A  43      11.509   3.804   1.670  1.00  0.00    -0.624 OA
ATOM   1027  O5'   A A  43      11.205   1.365   2.103  1.00  0.00    -0.287 OA
ATOM   1028  C5'   A A  43      11.539   0.099   2.667  1.00  0.00     0.216 C 
ATOM   1029  C4'   A A  43      10.696  -0.990   2.044  1.00  0.00     0.180 C 
ATOM   1030  O4'   A A  43       9.337  -0.880   2.547  1.00  0.00    -0.353 OA
ATOM   1031  C1'   A A  43       8.416  -1.143   1.502  1.00  0.00     0.262 C 
ATOM   1032  N9    A A  43       7.660   0.079   1.234  1.00  0.00    -0.294 N 
ATOM   1033  C4    A A  43       6.477   0.166   0.541  1.00  0.00     0.167 A 
ATOM   1034  N3    A A  43       5.784  -0.841  -0.017  1.00  0.00    -0.222 NA
ATOM   1035  C2    A A  43       4.684  -0.381  -0.610  1.00  0.00     0.237 A 
ATOM   1036  N1    A A  43       4.234   0.878  -0.701  1.00  0.00    -0.222 NA
ATOM   1037  C6    A A  43       4.956   1.866  -0.128  1.00  0.00     0.155 A 
ATOM   1038  N6    A A  43       4.506   3.117  -0.220  1.00  0.00    -0.382 N 
ATOM   1039  H61   A A  43       5.034   3.869   0.201  1.00  0.00     0.157 HD
ATOM   1040  H62   A A  43       3.646   3.315  -0.710  1.00  0.00     0.157 HD
ATOM   1041  C5    A A  43       6.144   1.508   0.532  1.00  0.00     0.149 A 
ATOM   1042  N7    A A  43       7.098   2.255   1.210  1.00  0.00    -0.236 NA
ATOM   1043  C8    A A  43       7.973   1.363   1.605  1.00  0.00     0.214 A 
ATOM   1044  C2'   A A  43       9.221  -1.633   0.300  1.00  0.00     0.199 C 
ATOM   1045  O2'   A A  43       9.363  -3.039   0.392  1.00  0.00    -0.388 OA
ATOM   1046 'HO2   A A  43       9.039  -3.400  -0.434  1.00  0.00     0.210 HD
ATOM   1047  C3'   A A  43      10.548  -0.921   0.530  1.00  0.00     0.198 C 
ATOM   1048  O3'   A A  43      11.633  -1.557  -0.139  1.00  0.00    -0.279 OA
ATOM   1049  P     G A  44      11.894  -1.263  -1.698  1.00  0.00     0.408 P 
ATOM   1050  OP1   G A  44      13.135  -1.985  -2.083  1.00  0.00    -0.624 OA
ATOM   1051  OP2   G A  44      11.799   0.202  -1.925  1.00  0.00    -0.624 OA
ATOM   1052  O5'   G A  44      10.666  -1.960  -2.438  1.00  0.00    -0.287 OA
ATOM   1053  C5'   G A  44      10.609  -3.378  -2.590  1.00  0.00     0.216 C 
ATOM   1054  C4'   G A  44       9.257  -3.792  -3.128  1.00  0.00     0.180 C 
ATOM   1055  O4'   G A  44       8.217  -3.063  -2.426  1.00  0.00    -0.353 OA
ATOM   1056  C1'   G A  44       7.128  -2.826  -3.305  1.00  0.00     0.262 C 
ATOM   1057  N9    G A  44       6.885  -1.388  -3.363  1.00  0.00    -0.293 N 
ATOM   1058  C4    G A  44       5.787  -0.766  -3.910  1.00  0.00     0.187 A 
ATOM   1059  N3    G A  44       4.737  -1.380  -4.493  1.00  0.00    -0.044 NA
ATOM   1060  C2    G A  44       3.839  -0.513  -4.927  1.00  0.00     0.703 A 
ATOM   1061  N2    G A  44       2.734  -0.952  -5.537  1.00  0.00    -0.233 N 
ATOM   1062  H21   G A  44       2.598  -1.945  -5.660  1.00  0.00     0.174 HD
ATOM   1063  H22   G A  44       2.045  -0.296  -5.878  1.00  0.00     0.174 HD
ATOM   1064  N1    G A  44       3.957   0.845  -4.797  1.00  0.00    -0.153 N 
ATOM   1065  H1    G A  44       3.211   1.417  -5.161  1.00  0.00     0.187 HD
ATOM   1066  C6    G A  44       5.028   1.501  -4.198  1.00  0.00     0.292 A 
ATOM   1067  O6    G A  44       5.034   2.735  -4.132  1.00  0.00    -0.265 OA
ATOM   1068  C5    G A  44       6.003   0.583  -3.730  1.00  0.00     0.173 A 
ATOM   1069  N7    G A  44       7.212   0.808  -3.084  1.00  0.00    -0.234 NA
ATOM   1070  C8    G A  44       7.699  -0.387  -2.889  1.00  0.00     0.214 A 
ATOM   1071  C2'   G A  44       7.479  -3.444  -4.659  1.00  0.00     0.199 C 
ATOM   1072  O2'   G A  44       6.945  -4.754  -4.705  1.00  0.00    -0.388 OA
ATOM   1073 'HO2   G A  44       7.601  -5.306  -5.131  1.00  0.00     0.210 HD
ATOM   1074  C3'   G A  44       9.003  -3.470  -4.593  1.00  0.00     0.198 C 
ATOM   1075  O3'   G A  44       9.568  -4.456  -5.456  1.00  0.00    -0.279 OA
ATOM   1076  P     A A  45       9.932  -4.076  -6.976  1.00  0.00     0.408 P 
ATOM   1077  OP1   A A  45      10.691  -5.220  -7.544  1.00  0.00    -0.624 OA
ATOM   1078  OP2   A A  45      10.532  -2.717  -6.996  1.00  0.00    -0.624 OA
ATOM   1079  O5'   A A  45       8.518  -4.009  -7.708  1.00  0.00    -0.287 OA
ATOM   1080  C5'   A A  45       7.712  -5.176  -7.861  1.00  0.00     0.216 C 
ATOM   1081  C4'   A A  45       6.362  -4.807  -8.433  1.00  0.00     0.180 C 
ATOM   1082  O4'   A A  45       5.742  -3.823  -7.563  1.00  0.00    -0.353 OA
ATOM   1083  C1'   A A  45       5.065  -2.853  -8.340  1.00  0.00     0.262 C 
ATOM   1084  N9    A A  45       5.684  -1.552  -8.091  1.00  0.00    -0.294 N 
ATOM   1085  C4    A A  45       5.058  -0.331  -8.159  1.00  0.00     0.167 A 
ATOM   1086  N3    A A  45       3.772  -0.093  -8.465  1.00  0.00    -0.222 NA
ATOM   1087  C2    A A  45       3.518   1.213  -8.434  1.00  0.00     0.237 A 
ATOM   1088  N1    A A  45       4.342   2.231  -8.154  1.00  0.00    -0.222 NA
ATOM   1089  C6    A A  45       5.628   1.954  -7.849  1.00  0.00     0.155 A 
ATOM   1090  N6    A A  45       6.449   2.967  -7.567  1.00  0.00    -0.382 N 
ATOM   1091  H61   A A  45       7.414   2.776  -7.337  1.00  0.00     0.157 HD
ATOM   1092  H62   A A  45       6.108   3.917  -7.581  1.00  0.00     0.157 HD
ATOM   1093  C5    A A  45       6.025   0.606  -7.847  1.00  0.00     0.149 A 
ATOM   1094  N7    A A  45       7.241  -0.010  -7.587  1.00  0.00    -0.236 NA
ATOM   1095  C8    A A  45       6.986  -1.287  -7.745  1.00  0.00     0.214 A 
ATOM   1096  C2'   A A  45       5.131  -3.296  -9.803  1.00  0.00     0.199 C 
ATOM   1097  O2'   A A  45       3.986  -4.077 -10.090  1.00  0.00    -0.388 OA
ATOM   1098 'HO2   A A  45       4.302  -4.887 -10.490  1.00  0.00     0.210 HD
ATOM   1099  C3'   A A  45       6.395  -4.147  -9.805  1.00  0.00     0.198 C 
ATOM   1100  O3'   A A  45       6.387  -5.120 -10.848  1.00  0.00    -0.279 OA
ATOM   1101  P     G A  46       7.389  -4.963 -12.098  1.00  0.00     0.408 P 
ATOM   1102  OP1   G A  46       7.139  -6.113 -13.005  1.00  0.00    -0.624 OA
ATOM   1103  OP2   G A  46       8.758  -4.729 -11.573  1.00  0.00    -0.624 OA
ATOM   1104  O5'   G A  46       6.893  -3.637 -12.828  1.00  0.00    -0.287 OA
ATOM   1105  C5'   G A  46       5.553  -3.513 -13.302  1.00  0.00     0.216 C 
ATOM   1106  C4'   G A  46       5.265  -2.079 -13.683  1.00  0.00     0.180 C 
ATOM   1107  O4'   G A  46       5.453  -1.237 -12.514  1.00  0.00    -0.353 OA
ATOM   1108  C1'   G A  46       6.057  -0.014 -12.897  1.00  0.00     0.262 C 
ATOM   1109  N9    G A  46       7.351   0.086 -12.229  1.00  0.00    -0.293 N 
ATOM   1110  C4    G A  46       7.875   1.203 -11.623  1.00  0.00     0.187 A 
ATOM   1111  N3    G A  46       7.280   2.411 -11.534  1.00  0.00    -0.044 NA
ATOM   1112  C2    G A  46       8.034   3.286 -10.895  1.00  0.00     0.703 A 
ATOM   1113  N2    G A  46       7.597   4.536 -10.720  1.00  0.00    -0.233 N 
ATOM   1114  H21   G A  46       6.690   4.796 -11.081  1.00  0.00     0.174 HD
ATOM   1115  H22   G A  46       8.166   5.213 -10.235  1.00  0.00     0.174 HD
ATOM   1116  N1    G A  46       9.274   3.002 -10.382  1.00  0.00    -0.153 N 
ATOM   1117  H1    G A  46       9.768   3.742  -9.908  1.00  0.00     0.187 HD
ATOM   1118  C6    G A  46       9.907   1.768 -10.461  1.00  0.00     0.292 A 
ATOM   1119  O6    G A  46      11.031   1.622  -9.966  1.00  0.00    -0.265 OA
ATOM   1120  C5    G A  46       9.109   0.815 -11.145  1.00  0.00     0.173 A 
ATOM   1121  N7    G A  46       9.356  -0.520 -11.442  1.00  0.00    -0.234 NA
ATOM   1122  C8    G A  46       8.288  -0.907 -12.083  1.00  0.00     0.214 A 
ATOM   1123  C2'   G A  46       6.149   0.003 -14.423  1.00  0.00     0.199 C 
ATOM   1124  O2'   G A  46       4.978   0.605 -14.941  1.00  0.00    -0.388 OA
ATOM   1125 'HO2   G A  46       4.726   0.091 -15.708  1.00  0.00     0.210 HD
ATOM   1126  C3'   G A  46       6.188  -1.487 -14.741  1.00  0.00     0.198 C 
ATOM   1127  O3'   G A  46       5.718  -1.772 -16.058  1.00  0.00    -0.279 OA
ATOM   1128  P     G A  47       6.697  -2.474 -17.125  1.00  0.00     0.408 P 
ATOM   1129  OP1   G A  47       5.835  -3.048 -18.190  1.00  0.00    -0.624 OA
ATOM   1130  OP2   G A  47       7.646  -3.356 -16.400  1.00  0.00    -0.624 OA
ATOM   1131  O5'   G A  47       7.517  -1.263 -17.757  1.00  0.00    -0.287 OA
ATOM   1132  C5'   G A  47       6.853  -0.087 -18.222  1.00  0.00     0.216 C 
ATOM   1133  C4'   G A  47       7.793   1.096 -18.175  1.00  0.00     0.180 C 
ATOM   1134  O4'   G A  47       8.432   1.127 -16.867  1.00  0.00    -0.353 OA
ATOM   1135  C1'   G A  47       9.827   0.947 -17.012  1.00  0.00     0.262 C 
ATOM   1136  N9    G A  47      10.292   0.074 -15.938  1.00  0.00    -0.293 N 
ATOM   1137  C4    G A  47      10.972   0.459 -14.808  1.00  0.00     0.187 A 
ATOM   1138  N3    G A  47      11.331   1.719 -14.486  1.00  0.00    -0.044 NA
ATOM   1139  C2    G A  47      11.976   1.771 -13.336  1.00  0.00     0.703 A 
ATOM   1140  N2    G A  47      12.402   2.946 -12.867  1.00  0.00    -0.233 N 
ATOM   1141  H21   G A  47      12.224   3.783 -13.401  1.00  0.00     0.174 HD
ATOM   1142  H22   G A  47      12.898   2.994 -11.989  1.00  0.00     0.174 HD
ATOM   1143  N1    G A  47      12.252   0.674 -12.559  1.00  0.00    -0.153 N 
ATOM   1144  H1    G A  47      12.750   0.817 -11.695  1.00  0.00     0.187 HD
ATOM   1145  C6    G A  47      11.897  -0.633 -12.869  1.00  0.00     0.292 A 
ATOM   1146  O6    G A  47      12.201  -1.550 -12.099  1.00  0.00    -0.265 OA
ATOM   1147  C5    G A  47      11.199  -0.707 -14.103  1.00  0.00     0.173 A 
ATOM   1148  N7    G A  47      10.668  -1.799 -14.776  1.00  0.00    -0.234 NA
ATOM   1149  C8    G A  47      10.142  -1.288 -15.854  1.00  0.00     0.214 A 
ATOM   1150  C2'   G A  47      10.057   0.387 -18.413  1.00  0.00     0.199 C 
ATOM   1151  O2'   G A  47      11.331   0.810 -18.866  1.00  0.00    -0.388 OA
ATOM   1152 'HO2   G A  47      11.189   1.555 -19.450  1.00  0.00     0.210 HD
ATOM   1153  C3'   G A  47       8.933   1.065 -19.187  1.00  0.00     0.198 C 
ATOM   1154  O3'   G A  47       9.283   2.380 -19.617  1.00  0.00    -0.279 OA
ATOM   1155  P     U A  48       9.699   2.639 -21.148  1.00  0.00     0.408 P 
ATOM   1156  OP1   U A  48       8.678   1.996 -22.014  1.00  0.00    -0.624 OA
ATOM   1157  OP2   U A  48      11.129   2.270 -21.303  1.00  0.00    -0.624 OA
ATOM   1158  O5'   U A  48       9.577   4.219 -21.319  1.00  0.00    -0.287 OA
ATOM   1159  C5'   U A  48       8.303   4.850 -21.449  1.00  0.00     0.216 C 
ATOM   1160  C4'   U A  48       8.480   6.320 -21.750  1.00  0.00     0.180 C 
ATOM   1161  O4'   U A  48       8.750   7.016 -20.500  1.00  0.00    -0.353 OA
ATOM   1162  C1'   U A  48       9.890   7.839 -20.647  1.00  0.00     0.264 C 
ATOM   1163  N1    U A  48      11.012   7.209 -19.936  1.00  0.00    -0.280 N 
ATOM   1164  C6    U A  48      10.895   5.949 -19.391  1.00  0.00     0.104 A 
ATOM   1165  C2    U A  48      12.193   7.922 -19.833  1.00  0.00     0.331 A 
ATOM   1166  O2    U A  48      12.335   9.040 -20.294  1.00  0.00    -0.246 OA
ATOM   1167  N3    U A  48      13.204   7.275 -19.169  1.00  0.00    -0.275 N 
ATOM   1168  H3    U A  48      14.077   7.775 -19.091  1.00  0.00     0.173 HD
ATOM   1169  C4    U A  48      13.157   6.021 -18.606  1.00  0.00     0.250 A 
ATOM   1170  O4    U A  48      14.156   5.572 -18.047  1.00  0.00    -0.268 OA
ATOM   1171  C5    U A  48      11.902   5.352 -18.748  1.00  0.00     0.092 A 
ATOM   1172  C2'   U A  48      10.119   8.010 -22.147  1.00  0.00     0.199 C 
ATOM   1173  O2'   U A  48       9.289   9.055 -22.619  1.00  0.00    -0.388 OA
ATOM   1174 'HO2   U A  48       8.772   8.688 -23.337  1.00  0.00     0.210 HD
ATOM   1175  C3'   U A  48       9.649   6.657 -22.669  1.00  0.00     0.198 C 
ATOM   1176  O3'   U A  48       9.234   6.718 -24.031  1.00  0.00    -0.279 OA
ATOM   1177  P     C A  49      10.139   6.041 -25.175  1.00  0.00     0.408 P 
ATOM   1178  OP1   C A  49       9.367   6.119 -26.440  1.00  0.00    -0.624 OA
ATOM   1179  OP2   C A  49      10.612   4.720 -24.683  1.00  0.00    -0.624 OA
ATOM   1180  O5'   C A  49      11.392   7.020 -25.302  1.00  0.00    -0.287 OA
ATOM   1181  C5'   C A  49      12.723   6.550 -25.098  1.00  0.00     0.216 C 
ATOM   1182  C4'   C A  49      13.540   7.599 -24.380  1.00  0.00     0.180 C 
ATOM   1183  O4'   C A  49      13.259   7.516 -22.955  1.00  0.00    -0.353 OA
ATOM   1184  C1'   C A  49      14.471   7.590 -22.223  1.00  0.00     0.264 C 
ATOM   1185  N1    C A  49      14.732   6.268 -21.626  1.00  0.00    -0.278 N 
ATOM   1186  C6    C A  49      13.861   5.230 -21.810  1.00  0.00     0.102 A 
ATOM   1187  C2    C A  49      15.894   6.087 -20.867  1.00  0.00     0.352 A 
ATOM   1188  O2    C A  49      16.665   7.043 -20.713  1.00  0.00    -0.244 OA
ATOM   1189  N3    C A  49      16.146   4.874 -20.324  1.00  0.00    -0.177 NA
ATOM   1190  C4    C A  49      15.291   3.868 -20.512  1.00  0.00     0.128 A 
ATOM   1191  N4    C A  49      15.581   2.693 -19.957  1.00  0.00    -0.384 N 
ATOM   1192  H41   C A  49      14.959   1.907 -20.076  1.00  0.00     0.157 HD
ATOM   1193  H42   C A  49      16.428   2.590 -19.417  1.00  0.00     0.157 HD
ATOM   1194  C5    C A  49      14.099   4.024 -21.280  1.00  0.00     0.067 A 
ATOM   1195  C2'   C A  49      15.549   8.056 -23.198  1.00  0.00     0.199 C 
ATOM   1196  O2'   C A  49      15.526   9.469 -23.265  1.00  0.00    -0.388 OA
ATOM   1197 'HO2   C A  49      15.452   9.701 -24.191  1.00  0.00     0.210 HD
ATOM   1198  C3'   C A  49      15.050   7.434 -24.495  1.00  0.00     0.198 C 
ATOM   1199  O3'   C A  49      15.559   8.092 -25.651  1.00  0.00    -0.279 OA
ATOM   1200  P     C A  50      16.505   7.291 -26.678  1.00  0.00     0.408 P 
ATOM   1201  OP1   C A  50      16.543   8.062 -27.945  1.00  0.00    -0.624 OA
ATOM   1202  OP2   C A  50      16.082   5.867 -26.697  1.00  0.00    -0.624 OA
ATOM   1203  O5'   C A  50      17.948   7.365 -26.009  1.00  0.00    -0.287 OA
ATOM   1204  C5'   C A  50      18.537   8.618 -25.667  1.00  0.00     0.216 C 
ATOM   1205  C4'   C A  50      19.738   8.402 -24.775  1.00  0.00     0.180 C 
ATOM   1206  O4'   C A  50      19.276   7.973 -23.464  1.00  0.00    -0.353 OA
ATOM   1207  C1'   C A  50      20.086   6.909 -22.995  1.00  0.00     0.264 C 
ATOM   1208  N1    C A  50      19.273   5.681 -22.970  1.00  0.00    -0.278 N 
ATOM   1209  C6    C A  50      18.070   5.625 -23.616  1.00  0.00     0.102 A 
ATOM   1210  C2    C A  50      19.752   4.569 -22.272  1.00  0.00     0.352 A 
ATOM   1211  O2    C A  50      20.848   4.643 -21.701  1.00  0.00    -0.244 OA
ATOM   1212  N3    C A  50      19.008   3.440 -22.240  1.00  0.00    -0.177 NA
ATOM   1213  C4    C A  50      17.835   3.396 -22.870  1.00  0.00     0.128 A 
ATOM   1214  N4    C A  50      17.136   2.263 -22.808  1.00  0.00    -0.384 N 
ATOM   1215  H41   C A  50      16.243   2.188 -23.271  1.00  0.00     0.157 HD
ATOM   1216  H42   C A  50      17.506   1.479 -22.291  1.00  0.00     0.157 HD
ATOM   1217  C5    C A  50      17.324   4.513 -23.592  1.00  0.00     0.067 A 
ATOM   1218  C2'   C A  50      21.300   6.828 -23.919  1.00  0.00     0.199 C 
ATOM   1219  O2'   C A  50      22.289   7.724 -23.450  1.00  0.00    -0.388 OA
ATOM   1220 'HO2   C A  50      22.538   8.276 -24.192  1.00  0.00     0.210 HD
ATOM   1221  C3'   C A  50      20.696   7.310 -25.232  1.00  0.00     0.198 C 
ATOM   1222  O3'   C A  50      21.675   7.822 -26.130  1.00  0.00    -0.279 OA
ATOM   1223  P     C A  51      22.183   6.919 -27.361  1.00  0.00     0.408 P 
ATOM   1224  OP1   C A  51      22.930   7.809 -28.285  1.00  0.00    -0.624 OA
ATOM   1225  OP2   C A  51      21.038   6.123 -27.874  1.00  0.00    -0.624 OA
ATOM   1226  O5'   C A  51      23.224   5.915 -26.695  1.00  0.00    -0.287 OA
ATOM   1227  C5'   C A  51      24.406   6.397 -26.057  1.00  0.00     0.216 C 
ATOM   1228  C4'   C A  51      25.201   5.244 -25.491  1.00  0.00     0.180 C 
ATOM   1229  O4'   C A  51      24.483   4.699 -24.350  1.00  0.00    -0.353 OA
ATOM   1230  C1'   C A  51      24.521   3.284 -24.388  1.00  0.00     0.264 C 
ATOM   1231  N1    C A  51      23.157   2.786 -24.635  1.00  0.00    -0.278 N 
ATOM   1232  C6    C A  51      22.237   3.557 -25.291  1.00  0.00     0.102 A 
ATOM   1233  C2    C A  51      22.815   1.508 -24.190  1.00  0.00     0.352 A 
ATOM   1234  O2    C A  51      23.666   0.832 -23.594  1.00  0.00    -0.244 OA
ATOM   1235  N3    C A  51      21.569   1.039 -24.417  1.00  0.00    -0.177 NA
ATOM   1236  C4    C A  51      20.679   1.797 -25.060  1.00  0.00     0.128 A 
ATOM   1237  N4    C A  51      19.464   1.290 -25.264  1.00  0.00    -0.384 N 
ATOM   1238  H41   C A  51      18.761   1.830 -25.748  1.00  0.00     0.157 HD
ATOM   1239  H42   C A  51      19.250   0.359 -24.934  1.00  0.00     0.157 HD
ATOM   1240  C5    C A  51      20.997   3.107 -25.523  1.00  0.00     0.067 A 
ATOM   1241  C2'   C A  51      25.523   2.887 -25.472  1.00  0.00     0.199 C 
ATOM   1242  O2'   C A  51      26.817   2.832 -24.902  1.00  0.00    -0.388 OA
ATOM   1243 'HO2   C A  51      27.394   3.319 -25.490  1.00  0.00     0.210 HD
ATOM   1244  C3'   C A  51      25.395   4.062 -26.433  1.00  0.00     0.198 C 
ATOM   1245  O3'   C A  51      26.556   4.226 -27.243  1.00  0.00    -0.279 OA
ATOM   1246  P     A A  52      26.674   3.437 -28.641  1.00  0.00     0.408 P 
ATOM   1247  OP1   A A  52      27.913   3.908 -29.310  1.00  0.00    -0.624 OA
ATOM   1248  OP2   A A  52      25.372   3.542 -29.349  1.00  0.00    -0.624 OA
ATOM   1249  O5'   A A  52      26.883   1.917 -28.210  1.00  0.00    -0.287 OA
ATOM   1250  C5'   A A  52      28.123   1.467 -27.663  1.00  0.00     0.216 C 
ATOM   1251  C4'   A A  52      28.253  -0.029 -27.828  1.00  0.00     0.180 C 
ATOM   1252  O4'   A A  52      27.388  -0.678 -26.857  1.00  0.00    -0.353 OA
ATOM   1253  C1'   A A  52      26.731  -1.777 -27.458  1.00  0.00     0.262 C 
ATOM   1254  N9    A A  52      25.296  -1.497 -27.484  1.00  0.00    -0.294 N 
ATOM   1255  C4    A A  52      24.294  -2.392 -27.206  1.00  0.00     0.167 A 
ATOM   1256  N3    A A  52      24.429  -3.684 -26.858  1.00  0.00    -0.222 NA
ATOM   1257  C2    A A  52      23.239  -4.245 -26.670  1.00  0.00     0.237 A 
ATOM   1258  N1    A A  52      22.020  -3.701 -26.778  1.00  0.00    -0.222 NA
ATOM   1259  C6    A A  52      21.918  -2.402 -27.127  1.00  0.00     0.155 A 
ATOM   1260  N6    A A  52      20.702  -1.865 -27.233  1.00  0.00    -0.382 N 
ATOM   1261  H61   A A  52      20.602  -0.895 -27.493  1.00  0.00     0.157 HD
ATOM   1262  H62   A A  52      19.883  -2.430 -27.056  1.00  0.00     0.157 HD
ATOM   1263  C5    A A  52      23.110  -1.693 -27.359  1.00  0.00     0.149 A 
ATOM   1264  N7    A A  52      23.360  -0.378 -27.725  1.00  0.00    -0.236 NA
ATOM   1265  C8    A A  52      24.669  -0.313 -27.785  1.00  0.00     0.214 A 
ATOM   1266  C2'   A A  52      27.342  -1.985 -28.843  1.00  0.00     0.199 C 
ATOM   1267  O2'   A A  52      28.431  -2.881 -28.724  1.00  0.00    -0.388 OA
ATOM   1268 'HO2   A A  52      28.419  -3.431 -29.509  1.00  0.00     0.210 HD
ATOM   1269  C3'   A A  52      27.812  -0.575 -29.180  1.00  0.00     0.198 C 
ATOM   1270  O3'   A A  52      28.884  -0.570 -30.119  1.00  0.00    -0.279 OA
ATOM   1271  P     G A  53      28.617  -1.020 -31.640  1.00  0.00     0.408 P 
ATOM   1272  OP1   G A  53      29.898  -0.871 -32.378  1.00  0.00    -0.624 OA
ATOM   1273  OP2   G A  53      27.405  -0.316 -32.129  1.00  0.00    -0.624 OA
ATOM   1274  O5'   G A  53      28.291  -2.576 -31.533  1.00  0.00    -0.287 OA
ATOM   1275  C5'   G A  53      27.268  -3.172 -32.330  1.00  0.00     0.216 C 
ATOM   1276  C4'   G A  53      26.911  -4.536 -31.785  1.00  0.00     0.180 C 
ATOM   1277  O4'   G A  53      26.226  -4.368 -30.512  1.00  0.00    -0.353 OA
ATOM   1278  C1'   G A  53      25.157  -5.294 -30.417  1.00  0.00     0.262 C 
ATOM   1279  N9    G A  53      23.905  -4.546 -30.369  1.00  0.00    -0.293 N 
ATOM   1280  C4    G A  53      22.640  -5.076 -30.286  1.00  0.00     0.187 A 
ATOM   1281  N3    G A  53      22.332  -6.389 -30.230  1.00  0.00    -0.044 NA
ATOM   1282  C2    G A  53      21.029  -6.587 -30.156  1.00  0.00     0.703 A 
ATOM   1283  N2    G A  53      20.549  -7.832 -30.093  1.00  0.00    -0.233 N 
ATOM   1284  H21   G A  53      21.188  -8.614 -30.103  1.00  0.00     0.174 HD
ATOM   1285  H22   G A  53      19.552  -7.988 -30.037  1.00  0.00     0.174 HD
ATOM   1286  N1    G A  53      20.099  -5.580 -30.137  1.00  0.00    -0.153 N 
ATOM   1287  H1    G A  53      19.129  -5.844 -30.079  1.00  0.00     0.187 HD
ATOM   1288  C6    G A  53      20.390  -4.222 -30.194  1.00  0.00     0.292 A 
ATOM   1289  O6    G A  53      19.470  -3.396 -30.172  1.00  0.00    -0.265 OA
ATOM   1290  C5    G A  53      21.789  -3.992 -30.274  1.00  0.00     0.173 A 
ATOM   1291  N7    G A  53      22.502  -2.804 -30.346  1.00  0.00    -0.234 NA
ATOM   1292  C8    G A  53      23.749  -3.182 -30.400  1.00  0.00     0.214 A 
ATOM   1293  C2'   G A  53      25.262  -6.240 -31.613  1.00  0.00     0.199 C 
ATOM   1294  O2'   G A  53      26.089  -7.333 -31.258  1.00  0.00    -0.388 OA
ATOM   1295 'HO2   G A  53      26.739  -7.426 -31.956  1.00  0.00     0.210 HD
ATOM   1296  C3'   G A  53      25.943  -5.344 -32.640  1.00  0.00     0.198 C 
ATOM   1297  O3'   G A  53      26.630  -6.094 -33.641  1.00  0.00    -0.279 OA
ATOM   1298  P     A A  54      26.151  -6.015 -35.175  1.00  0.00     0.408 P 
ATOM   1299  OP1   A A  54      27.342  -6.291 -36.015  1.00  0.00    -0.624 OA
ATOM   1300  OP2   A A  54      25.393  -4.753 -35.374  1.00  0.00    -0.624 OA
ATOM   1301  O5'   A A  54      25.145  -7.243 -35.329  1.00  0.00    -0.287 OA
ATOM   1302  C5'   A A  54      23.926  -7.113 -36.063  1.00  0.00     0.216 C 
ATOM   1303  C4'   A A  54      22.898  -8.084 -35.534  1.00  0.00     0.180 C 
ATOM   1304  O4'   A A  54      22.497  -7.654 -34.205  1.00  0.00    -0.353 OA
ATOM   1305  C1'   A A  54      21.094  -7.780 -34.060  1.00  0.00     0.262 C 
ATOM   1306  N9    A A  54      20.524  -6.441 -33.916  1.00  0.00    -0.294 N 
ATOM   1307  C4    A A  54      19.193  -6.137 -33.753  1.00  0.00     0.167 A 
ATOM   1308  N3    A A  54      18.163  -7.000 -33.692  1.00  0.00    -0.222 NA
ATOM   1309  C2    A A  54      17.015  -6.347 -33.534  1.00  0.00     0.237 A 
ATOM   1310  N1    A A  54      16.794  -5.029 -33.439  1.00  0.00    -0.222 NA
ATOM   1311  C6    A A  54      17.850  -4.191 -33.502  1.00  0.00     0.155 A 
ATOM   1312  N6    A A  54      17.626  -2.880 -33.404  1.00  0.00    -0.382 N 
ATOM   1313  H61   A A  54      18.402  -2.234 -33.448  1.00  0.00     0.157 HD
ATOM   1314  H62   A A  54      16.684  -2.532 -33.289  1.00  0.00     0.157 HD
ATOM   1315  C5    A A  54      19.127  -4.759 -33.668  1.00  0.00     0.149 A 
ATOM   1316  N7    A A  54      20.395  -4.201 -33.772  1.00  0.00    -0.236 NA
ATOM   1317  C8    A A  54      21.184  -5.236 -33.917  1.00  0.00     0.214 A 
ATOM   1318  C2'   A A  54      20.575  -8.544 -35.278  1.00  0.00     0.199 C 
ATOM   1319  O2'   A A  54      20.622  -9.931 -35.000  1.00  0.00    -0.388 OA
ATOM   1320 'HO2   A A  54      21.042 -10.347 -35.754  1.00  0.00     0.210 HD
ATOM   1321  C3'   A A  54      21.603  -8.158 -36.335  1.00  0.00     0.198 C 
ATOM   1322  O3'   A A  54      21.692  -9.126 -37.382  1.00  0.00    -0.279 OA
ATOM   1323  P     U A  55      20.913  -8.882 -38.770  1.00  0.00     0.408 P 
ATOM   1324  OP1   U A  55      21.661  -9.612 -39.826  1.00  0.00    -0.624 OA
ATOM   1325  OP2   U A  55      20.654  -7.428 -38.929  1.00  0.00    -0.624 OA
ATOM   1326  O5'   U A  55      19.516  -9.622 -38.568  1.00  0.00    -0.287 OA
ATOM   1327  C5'   U A  55      18.446  -8.999 -37.857  1.00  0.00     0.216 C 
ATOM   1328  C4'   U A  55      17.259  -8.795 -38.769  1.00  0.00     0.180 C 
ATOM   1329  O4'   U A  55      16.393  -7.786 -38.181  1.00  0.00    -0.353 OA
ATOM   1330  C1'   U A  55      15.922  -6.908 -39.188  1.00  0.00     0.264 C 
ATOM   1331  N1    U A  55      16.495  -5.576 -38.946  1.00  0.00    -0.280 N 
ATOM   1332  C6    U A  55      17.776  -5.427 -38.466  1.00  0.00     0.104 A 
ATOM   1333  C2    U A  55      15.703  -4.475 -39.218  1.00  0.00     0.331 A 
ATOM   1334  O2    U A  55      14.564  -4.564 -39.638  1.00  0.00    -0.246 OA
ATOM   1335  N3    U A  55      16.295  -3.262 -38.977  1.00  0.00    -0.275 N 
ATOM   1336  H3    U A  55      15.743  -2.443 -39.186  1.00  0.00     0.173 HD
ATOM   1337  C4    U A  55      17.566  -3.041 -38.496  1.00  0.00     0.250 A 
ATOM   1338  O4    U A  55      17.953  -1.887 -38.317  1.00  0.00    -0.268 OA
ATOM   1339  C5    U A  55      18.319  -4.228 -38.239  1.00  0.00     0.092 A 
ATOM   1340  C2'   U A  55      16.314  -7.510 -40.536  1.00  0.00     0.199 C 
ATOM   1341  O2'   U A  55      15.287  -8.392 -40.952  1.00  0.00    -0.388 OA
ATOM   1342 'HO2   U A  55      15.716  -9.161 -41.326  1.00  0.00     0.210 HD
ATOM   1343  C3'   U A  55      17.581  -8.271 -40.164  1.00  0.00     0.198 C 
ATOM   1344  O3'   U A  55      17.859  -9.332 -41.074  1.00  0.00    -0.279 OA
ATOM   1345  P     U A  56      18.609  -9.018 -42.463  1.00  0.00     0.408 P 
ATOM   1346  OP1   U A  56      18.989 -10.321 -43.065  1.00  0.00    -0.624 OA
ATOM   1347  OP2   U A  56      19.656  -7.996 -42.202  1.00  0.00    -0.624 OA
ATOM   1348  O5'   U A  56      17.476  -8.365 -43.375  1.00  0.00    -0.287 OA
ATOM   1349  C5'   U A  56      17.789  -7.363 -44.345  1.00  0.00     0.216 C 
ATOM   1350  C4'   U A  56      16.711  -6.303 -44.367  1.00  0.00     0.180 C 
ATOM   1351  O4'   U A  56      16.491  -5.834 -43.008  1.00  0.00    -0.353 OA
ATOM   1352  C1'   U A  56      16.345  -4.425 -43.002  1.00  0.00     0.264 C 
ATOM   1353  N1    U A  56      17.491  -3.844 -42.287  1.00  0.00    -0.280 N 
ATOM   1354  C6    U A  56      18.607  -4.595 -41.995  1.00  0.00     0.104 A 
ATOM   1355  C2    U A  56      17.411  -2.515 -41.919  1.00  0.00     0.331 A 
ATOM   1356  O2    U A  56      16.439  -1.820 -42.151  1.00  0.00    -0.246 OA
ATOM   1357  N3    U A  56      18.514  -2.027 -41.267  1.00  0.00    -0.275 N 
ATOM   1358  H3    U A  56      18.485  -1.057 -40.998  1.00  0.00     0.173 HD
ATOM   1359  C4    U A  56      19.660  -2.717 -40.947  1.00  0.00     0.250 A 
ATOM   1360  O4    U A  56      20.567  -2.138 -40.351  1.00  0.00    -0.268 OA
ATOM   1361  C5    U A  56      19.663  -4.087 -41.356  1.00  0.00     0.092 A 
ATOM   1362  C2'   U A  56      16.236  -3.970 -44.457  1.00  0.00     0.199 C 
ATOM   1363  O2'   U A  56      14.876  -4.014 -44.846  1.00  0.00    -0.388 OA
ATOM   1364 'HO2   U A  56      14.767  -4.795 -45.387  1.00  0.00     0.210 HD
ATOM   1365  C3'   U A  56      17.047  -5.048 -45.165  1.00  0.00     0.198 C 
ATOM   1366  O3'   U A  56      16.678  -5.182 -46.535  1.00  0.00    -0.279 OA
ATOM   1367  P     C A  57      17.603  -4.536 -47.682  1.00  0.00     0.408 P 
ATOM   1368  OP1   C A  57      16.767  -4.409 -48.902  1.00  0.00    -0.624 OA
ATOM   1369  OP2   C A  57      18.872  -5.305 -47.740  1.00  0.00    -0.624 OA
ATOM   1370  O5'   C A  57      17.926  -3.068 -47.146  1.00  0.00    -0.287 OA
ATOM   1371  C5'   C A  57      19.192  -2.455 -47.393  1.00  0.00     0.216 C 
ATOM   1372  C4'   C A  57      19.007  -0.997 -47.751  1.00  0.00     0.180 C 
ATOM   1373  O4'   C A  57      18.141  -0.905 -48.916  1.00  0.00    -0.353 OA
ATOM   1374  C1'   C A  57      17.231   0.168 -48.755  1.00  0.00     0.264 C 
ATOM   1375  N1    C A  57      15.872  -0.387 -48.659  1.00  0.00    -0.278 N 
ATOM   1376  C6    C A  57      15.636  -1.545 -47.971  1.00  0.00     0.102 A 
ATOM   1377  C2    C A  57      14.820   0.290 -49.282  1.00  0.00     0.352 A 
ATOM   1378  O2    C A  57      15.061   1.336 -49.902  1.00  0.00    -0.244 OA
ATOM   1379  N3    C A  57      13.567  -0.213 -49.194  1.00  0.00    -0.177 NA
ATOM   1380  C4    C A  57      13.349  -1.342 -48.518  1.00  0.00     0.128 A 
ATOM   1381  N4    C A  57      12.098  -1.797 -48.455  1.00  0.00    -0.384 N 
ATOM   1382  H41   C A  57      11.897  -2.648 -47.951  1.00  0.00     0.157 HD
ATOM   1383  H42   C A  57      11.359  -1.286 -48.913  1.00  0.00     0.157 HD
ATOM   1384  C5    C A  57      14.402  -2.054 -47.877  1.00  0.00     0.067 A 
ATOM   1385  C2'   C A  57      17.663   0.953 -47.516  1.00  0.00     0.199 C 
ATOM   1386  O2'   C A  57      18.603   1.938 -47.905  1.00  0.00    -0.388 OA
ATOM   1387 'HO2   C A  57      19.278   1.955 -47.226  1.00  0.00     0.210 HD
ATOM   1388  C3'   C A  57      18.325  -0.142 -46.690  1.00  0.00     0.198 C 
ATOM   1389  O3'   C A  57      19.264   0.382 -45.754  1.00  0.00    -0.279 OA
ATOM   1390  P     G A  58      19.220  -0.098 -44.218  1.00  0.00     0.408 P 
ATOM   1391  OP1   G A  58      20.524   0.266 -43.608  1.00  0.00    -0.624 OA
ATOM   1392  OP2   G A  58      18.763  -1.511 -44.181  1.00  0.00    -0.624 OA
ATOM   1393  O5'   G A  58      18.092   0.814 -43.558  1.00  0.00    -0.287 OA
ATOM   1394  C5'   G A  58      18.299   2.213 -43.363  1.00  0.00     0.216 C 
ATOM   1395  C4'   G A  58      17.018   2.873 -42.907  1.00  0.00     0.180 C 
ATOM   1396  O4'   G A  58      16.092   2.911 -44.027  1.00  0.00    -0.353 OA
ATOM   1397  C1'   G A  58      14.796   2.540 -43.592  1.00  0.00     0.262 C 
ATOM   1398  N9    G A  58      14.460   1.254 -44.197  1.00  0.00    -0.293 N 
ATOM   1399  C4    G A  58      13.230   0.641 -44.185  1.00  0.00     0.187 A 
ATOM   1400  N3    G A  58      12.110   1.121 -43.607  1.00  0.00    -0.044 NA
ATOM   1401  C2    G A  58      11.085   0.302 -43.762  1.00  0.00     0.703 A 
ATOM   1402  N2    G A  58       9.895   0.625 -43.247  1.00  0.00    -0.233 N 
ATOM   1403  H21   G A  58       9.797   1.494 -42.743  1.00  0.00     0.174 HD
ATOM   1404  H22   G A  58       9.105   0.009 -43.357  1.00  0.00     0.174 HD
ATOM   1405  N1    G A  58      11.149  -0.890 -44.434  1.00  0.00    -0.153 N 
ATOM   1406  H1    G A  58      10.308  -1.442 -44.497  1.00  0.00     0.187 HD
ATOM   1407  C6    G A  58      12.290  -1.405 -45.041  1.00  0.00     0.292 A 
ATOM   1408  O6    G A  58      12.235  -2.493 -45.626  1.00  0.00    -0.265 OA
ATOM   1409  C5    G A  58      13.403  -0.539 -44.879  1.00  0.00     0.173 A 
ATOM   1410  N7    G A  58      14.714  -0.665 -45.317  1.00  0.00    -0.234 NA
ATOM   1411  C8    G A  58      15.301   0.418 -44.889  1.00  0.00     0.214 A 
ATOM   1412  C2'   G A  58      14.816   2.514 -42.065  1.00  0.00     0.199 C 
ATOM   1413  O2'   G A  58      14.516   3.810 -41.584  1.00  0.00    -0.388 OA
ATOM   1414 'HO2   G A  58      14.994   3.913 -40.761  1.00  0.00     0.210 HD
ATOM   1415  C3'   G A  58      16.270   2.149 -41.793  1.00  0.00     0.198 C 
ATOM   1416  O3'   G A  58      16.699   2.584 -40.504  1.00  0.00    -0.279 OA
ATOM   1417  P     A A  59      17.690   1.660 -39.638  1.00  0.00     0.408 P 
ATOM   1418  OP1   A A  59      19.080   2.014 -40.025  1.00  0.00    -0.624 OA
ATOM   1419  OP2   A A  59      17.231   0.254 -39.754  1.00  0.00    -0.624 OA
ATOM   1420  O5'   A A  59      17.455   2.135 -38.134  1.00  0.00    -0.287 OA
ATOM   1421  C5'   A A  59      17.250   3.512 -37.816  1.00  0.00     0.216 C 
ATOM   1422  C4'   A A  59      15.954   3.684 -37.058  1.00  0.00     0.180 C 
ATOM   1423  O4'   A A  59      14.907   2.930 -37.733  1.00  0.00    -0.353 OA
ATOM   1424  C1'   A A  59      14.050   2.336 -36.772  1.00  0.00     0.262 C 
ATOM   1425  N9    A A  59      14.157   0.882 -36.889  1.00  0.00    -0.294 N 
ATOM   1426  C4    A A  59      13.137  -0.020 -36.707  1.00  0.00     0.167 A 
ATOM   1427  N3    A A  59      11.859   0.248 -36.391  1.00  0.00    -0.222 NA
ATOM   1428  C2    A A  59      11.152  -0.875 -36.298  1.00  0.00     0.237 A 
ATOM   1429  N1    A A  59      11.549  -2.143 -36.473  1.00  0.00    -0.222 NA
ATOM   1430  C6    A A  59      12.839  -2.377 -36.792  1.00  0.00     0.155 A 
ATOM   1431  N6    A A  59      13.231  -3.640 -36.968  1.00  0.00    -0.382 N 
ATOM   1432  H61   A A  59      14.190  -3.841 -37.208  1.00  0.00     0.157 HD
ATOM   1433  H62   A A  59      12.563  -4.390 -36.865  1.00  0.00     0.157 HD
ATOM   1434  C5    A A  59      13.694  -1.268 -36.918  1.00  0.00     0.149 A 
ATOM   1435  N7    A A  59      15.043  -1.157 -37.226  1.00  0.00    -0.236 NA
ATOM   1436  C8    A A  59      15.268   0.135 -37.195  1.00  0.00     0.214 A 
ATOM   1437  C2'   A A  59      14.459   2.883 -35.405  1.00  0.00     0.199 C 
ATOM   1438  O2'   A A  59      13.702   4.061 -35.208  1.00  0.00    -0.388 OA
ATOM   1439 'HO2   A A  59      13.962   4.676 -35.896  1.00  0.00     0.210 HD
ATOM   1440  C3'   A A  59      15.946   3.134 -35.638  1.00  0.00     0.198 C 
ATOM   1441  O3'   A A  59      16.590   4.020 -34.703  1.00  0.00    -0.279 OA
ATOM   1442  P     G A  60      15.877   5.385 -34.221  1.00  0.00     0.408 P 
ATOM   1443  OP1   G A  60      15.156   5.990 -35.370  1.00  0.00    -0.624 OA
ATOM   1444  OP2   G A  60      16.906   6.183 -33.508  1.00  0.00    -0.624 OA
ATOM   1445  O5'   G A  60      14.811   4.904 -33.138  1.00  0.00    -0.287 OA
ATOM   1446  C5'   G A  60      13.715   5.737 -32.763  1.00  0.00     0.216 C 
ATOM   1447  C4'   G A  60      13.109   5.249 -31.468  1.00  0.00     0.180 C 
ATOM   1448  O4'   G A  60      12.114   6.217 -31.040  1.00  0.00    -0.353 OA
ATOM   1449  C1'   G A  60      10.959   5.547 -30.572  1.00  0.00     0.262 C 
ATOM   1450  N9    G A  60       9.847   5.881 -31.456  1.00  0.00    -0.293 N 
ATOM   1451  C4    G A  60       9.829   5.785 -32.828  1.00  0.00     0.187 A 
ATOM   1452  N3    G A  60      10.845   5.357 -33.606  1.00  0.00    -0.044 NA
ATOM   1453  C2    G A  60      10.526   5.379 -34.886  1.00  0.00     0.703 A 
ATOM   1454  N2    G A  60      11.418   4.984 -35.797  1.00  0.00    -0.233 N 
ATOM   1455  H21   G A  60      12.330   4.673 -35.484  1.00  0.00     0.174 HD
ATOM   1456  H22   G A  60      11.189   4.986 -36.778  1.00  0.00     0.174 HD
ATOM   1457  N1    G A  60       9.311   5.787 -35.370  1.00  0.00    -0.153 N 
ATOM   1458  H1    G A  60       9.173   5.766 -36.368  1.00  0.00     0.187 HD
ATOM   1459  C6    G A  60       8.249   6.230 -34.589  1.00  0.00     0.292 A 
ATOM   1460  O6    G A  60       7.192   6.575 -35.130  1.00  0.00    -0.265 OA
ATOM   1461  C5    G A  60       8.575   6.213 -33.208  1.00  0.00     0.173 A 
ATOM   1462  N7    G A  60       7.818   6.570 -32.100  1.00  0.00    -0.234 NA
ATOM   1463  C8    G A  60       8.613   6.356 -31.087  1.00  0.00     0.214 A 
ATOM   1464  C2'   G A  60      11.273   4.053 -30.506  1.00  0.00     0.199 C 
ATOM   1465  O2'   G A  60      11.762   3.752 -29.212  1.00  0.00    -0.388 OA
ATOM   1466 'HO2   G A  60      12.682   3.505 -29.318  1.00  0.00     0.210 HD
ATOM   1467  C3'   G A  60      12.375   3.916 -31.554  1.00  0.00     0.198 C 
ATOM   1468  O3'   G A  60      13.257   2.831 -31.272  1.00  0.00    -0.279 OA
ATOM   1469  P     U A  61      12.800   1.320 -31.585  1.00  0.00     0.408 P 
ATOM   1470  OP1   U A  61      13.361   0.460 -30.510  1.00  0.00    -0.624 OA
ATOM   1471  OP2   U A  61      13.113   1.013 -33.003  1.00  0.00    -0.624 OA
ATOM   1472  O5'   U A  61      11.214   1.344 -31.429  1.00  0.00    -0.287 OA
ATOM   1473  C5'   U A  61      10.586   1.023 -30.189  1.00  0.00     0.216 C 
ATOM   1474  C4'   U A  61       9.086   0.955 -30.369  1.00  0.00     0.180 C 
ATOM   1475  O4'   U A  61       8.641   2.173 -31.029  1.00  0.00    -0.353 OA
ATOM   1476  C1'   U A  61       7.692   1.858 -32.031  1.00  0.00     0.264 C 
ATOM   1477  N1    U A  61       8.284   2.155 -33.343  1.00  0.00    -0.280 N 
ATOM   1478  C6    U A  61       9.637   2.028 -33.562  1.00  0.00     0.104 A 
ATOM   1479  C2    U A  61       7.436   2.567 -34.355  1.00  0.00     0.331 A 
ATOM   1480  O2    U A  61       6.236   2.695 -34.201  1.00  0.00    -0.246 OA
ATOM   1481  N3    U A  61       8.047   2.823 -35.554  1.00  0.00    -0.275 N 
ATOM   1482  H3    U A  61       7.444   3.122 -36.305  1.00  0.00     0.173 HD
ATOM   1483  C4    U A  61       9.388   2.713 -35.843  1.00  0.00     0.250 A 
ATOM   1484  O4    U A  61       9.787   2.989 -36.974  1.00  0.00    -0.268 OA
ATOM   1485  C5    U A  61      10.198   2.286 -34.746  1.00  0.00     0.092 A 
ATOM   1486  C2'   U A  61       7.308   0.390 -31.849  1.00  0.00     0.199 C 
ATOM   1487  O2'   U A  61       6.238   0.311 -30.927  1.00  0.00    -0.388 OA
ATOM   1488 'HO2   U A  61       6.558  -0.191 -30.176  1.00  0.00     0.210 HD
ATOM   1489  C3'   U A  61       8.590  -0.181 -31.256  1.00  0.00     0.198 C 
ATOM   1490  O3'   U A  61       8.353  -1.365 -30.501  1.00  0.00    -0.279 OA
ATOM   1491  P     U A  62       9.403  -2.582 -30.568  1.00  0.00     0.408 P 
ATOM   1492  OP1   U A  62       9.116  -3.468 -29.411  1.00  0.00    -0.624 OA
ATOM   1493  OP2   U A  62      10.770  -2.030 -30.747  1.00  0.00    -0.624 OA
ATOM   1494  O5'   U A  62       9.013  -3.354 -31.907  1.00  0.00    -0.287 OA
ATOM   1495  C5'   U A  62       8.238  -4.554 -31.873  1.00  0.00     0.216 C 
ATOM   1496  C4'   U A  62       9.132  -5.759 -32.057  1.00  0.00     0.180 C 
ATOM   1497  O4'   U A  62       9.859  -5.621 -33.312  1.00  0.00    -0.353 OA
ATOM   1498  C1'   U A  62      11.189  -6.086 -33.146  1.00  0.00     0.264 C 
ATOM   1499  N1    U A  62      12.107  -4.945 -33.284  1.00  0.00    -0.280 N 
ATOM   1500  C6    U A  62      11.644  -3.649 -33.326  1.00  0.00     0.104 A 
ATOM   1501  C2    U A  62      13.459  -5.221 -33.360  1.00  0.00     0.331 A 
ATOM   1502  O2    U A  62      13.907  -6.352 -33.337  1.00  0.00    -0.246 OA
ATOM   1503  N3    U A  62      14.269  -4.122 -33.465  1.00  0.00    -0.275 N 
ATOM   1504  H3    U A  62      15.261  -4.305 -33.520  1.00  0.00     0.173 HD
ATOM   1505  C4    U A  62      13.880  -2.805 -33.504  1.00  0.00     0.250 A 
ATOM   1506  O4    U A  62      14.738  -1.925 -33.577  1.00  0.00    -0.268 OA
ATOM   1507  C5    U A  62      12.466  -2.600 -33.430  1.00  0.00     0.092 A 
ATOM   1508  C2'   U A  62      11.264  -6.752 -31.774  1.00  0.00     0.199 C 
ATOM   1509  O2'   U A  62      10.872  -8.106 -31.902  1.00  0.00    -0.388 OA
ATOM   1510 'HO2   U A  62      10.295  -8.299 -31.163  1.00  0.00     0.210 HD
ATOM   1511  C3'   U A  62      10.224  -5.944 -31.011  1.00  0.00     0.198 C 
ATOM   1512  O3'   U A  62       9.753  -6.627 -29.852  1.00  0.00    -0.279 OA
ATOM   1513  P     C A  63      10.616  -6.584 -28.495  1.00  0.00     0.408 P 
ATOM   1514  OP1   C A  63       9.839  -7.294 -27.448  1.00  0.00    -0.624 OA
ATOM   1515  OP2   C A  63      11.057  -5.186 -28.259  1.00  0.00    -0.624 OA
ATOM   1516  O5'   C A  63      11.911  -7.452 -28.831  1.00  0.00    -0.287 OA
ATOM   1517  C5'   C A  63      11.893  -8.875 -28.730  1.00  0.00     0.216 C 
ATOM   1518  C4'   C A  63      13.300  -9.423 -28.784  1.00  0.00     0.180 C 
ATOM   1519  O4'   C A  63      13.983  -8.868 -29.941  1.00  0.00    -0.353 OA
ATOM   1520  C1'   C A  63      15.345  -8.633 -29.626  1.00  0.00     0.264 C 
ATOM   1521  N1    C A  63      15.616  -7.193 -29.769  1.00  0.00    -0.278 N 
ATOM   1522  C6    C A  63      14.595  -6.284 -29.779  1.00  0.00     0.102 A 
ATOM   1523  C2    C A  63      16.940  -6.766 -29.894  1.00  0.00     0.352 A 
ATOM   1524  O2    C A  63      17.848  -7.610 -29.885  1.00  0.00    -0.244 OA
ATOM   1525  N3    C A  63      17.200  -5.446 -30.020  1.00  0.00    -0.177 NA
ATOM   1526  C4    C A  63      16.198  -4.567 -30.026  1.00  0.00     0.128 A 
ATOM   1527  N4    C A  63      16.504  -3.276 -30.150  1.00  0.00    -0.384 N 
ATOM   1528  H41   C A  63      15.775  -2.578 -30.159  1.00  0.00     0.157 HD
ATOM   1529  H42   C A  63      17.472  -3.000 -30.230  1.00  0.00     0.157 HD
ATOM   1530  C5    C A  63      14.837  -4.973 -29.904  1.00  0.00     0.067 A 
ATOM   1531  C2'   C A  63      15.590  -9.162 -28.213  1.00  0.00     0.199 C 
ATOM   1532  O2'   C A  63      16.006 -10.512 -28.302  1.00  0.00    -0.388 OA
ATOM   1533 'HO2   C A  63      15.453 -11.015 -27.704  1.00  0.00     0.210 HD
ATOM   1534  C3'   C A  63      14.195  -9.051 -27.609  1.00  0.00     0.198 C 
ATOM   1535  O3'   C A  63      14.010  -9.932 -26.504  1.00  0.00    -0.279 OA
ATOM   1536  P     U A  64      14.466  -9.473 -25.031  1.00  0.00     0.408 P 
ATOM   1537  OP1   U A  64      14.081 -10.555 -24.089  1.00  0.00    -0.624 OA
ATOM   1538  OP2   U A  64      13.978  -8.090 -24.799  1.00  0.00    -0.624 OA
ATOM   1539  O5'   U A  64      16.057  -9.428 -25.117  1.00  0.00    -0.287 OA
ATOM   1540  C5'   U A  64      16.820 -10.624 -25.268  1.00  0.00     0.216 C 
ATOM   1541  C4'   U A  64      18.245 -10.394 -24.820  1.00  0.00     0.180 C 
ATOM   1542  O4'   U A  64      18.976  -9.735 -25.892  1.00  0.00    -0.353 OA
ATOM   1543  C1'   U A  64      19.861  -8.772 -25.344  1.00  0.00     0.264 C 
ATOM   1544  N1    U A  64      19.431  -7.439 -25.787  1.00  0.00    -0.280 N 
ATOM   1545  C6    U A  64      18.095  -7.125 -25.927  1.00  0.00     0.104 A 
ATOM   1546  C2    U A  64      20.411  -6.503 -26.056  1.00  0.00     0.331 A 
ATOM   1547  O2    U A  64      21.601  -6.739 -25.945  1.00  0.00    -0.246 OA
ATOM   1548  N3    U A  64      19.948  -5.278 -26.461  1.00  0.00    -0.275 N 
ATOM   1549  H3    U A  64      20.649  -4.580 -26.657  1.00  0.00     0.173 HD
ATOM   1550  C4    U A  64      18.637  -4.898 -26.622  1.00  0.00     0.250 A 
ATOM   1551  O4    U A  64      18.384  -3.757 -27.006  1.00  0.00    -0.268 OA
ATOM   1552  C5    U A  64      17.682  -5.918 -26.325  1.00  0.00     0.092 A 
ATOM   1553  C2'   U A  64      19.838  -8.954 -23.827  1.00  0.00     0.199 C 
ATOM   1554  O2'   U A  64      20.797  -9.931 -23.470  1.00  0.00    -0.388 OA
ATOM   1555 'HO2   U A  64      20.903  -9.880 -22.520  1.00  0.00     0.210 HD
ATOM   1556  C3'   U A  64      18.420  -9.466 -23.625  1.00  0.00     0.198 C 
ATOM   1557  O3'   U A  64      18.255 -10.152 -22.386  1.00  0.00    -0.279 OA
ATOM   1558  P     G A  65      17.702  -9.356 -21.103  1.00  0.00     0.408 P 
ATOM   1559  OP1   G A  65      17.559 -10.341 -20.001  1.00  0.00    -0.624 OA
ATOM   1560  OP2   G A  65      16.525  -8.552 -21.524  1.00  0.00    -0.624 OA
ATOM   1561  O5'   G A  65      18.885  -8.354 -20.731  1.00  0.00    -0.287 OA
ATOM   1562  C5'   G A  65      19.838  -8.682 -19.719  1.00  0.00     0.216 C 
ATOM   1563  C4'   G A  65      21.151  -7.978 -19.987  1.00  0.00     0.180 C 
ATOM   1564  O4'   G A  65      21.211  -7.570 -21.378  1.00  0.00    -0.353 OA
ATOM   1565  C1'   G A  65      21.972  -6.381 -21.493  1.00  0.00     0.262 C 
ATOM   1566  N9    G A  65      21.165  -5.383 -22.192  1.00  0.00    -0.293 N 
ATOM   1567  C4    G A  65      21.549  -4.105 -22.517  1.00  0.00     0.187 A 
ATOM   1568  N3    G A  65      22.741  -3.539 -22.236  1.00  0.00    -0.044 NA
ATOM   1569  C2    G A  65      22.814  -2.296 -22.675  1.00  0.00     0.703 A 
ATOM   1570  N2    G A  65      23.926  -1.588 -22.471  1.00  0.00    -0.233 N 
ATOM   1571  H21   G A  65      24.698  -2.019 -21.981  1.00  0.00     0.174 HD
ATOM   1572  H22   G A  65      23.993  -0.633 -22.795  1.00  0.00     0.174 HD
ATOM   1573  N1    G A  65      21.802  -1.656 -23.341  1.00  0.00    -0.153 N 
ATOM   1574  H1    G A  65      21.961  -0.705 -23.637  1.00  0.00     0.187 HD
ATOM   1575  C6    G A  65      20.565  -2.216 -23.645  1.00  0.00     0.292 A 
ATOM   1576  O6    G A  65      19.720  -1.548 -24.255  1.00  0.00    -0.265 OA
ATOM   1577  C5    G A  65      20.469  -3.553 -23.175  1.00  0.00     0.173 A 
ATOM   1578  N7    G A  65      19.426  -4.465 -23.260  1.00  0.00    -0.234 NA
ATOM   1579  C8    G A  65      19.882  -5.531 -22.661  1.00  0.00     0.214 A 
ATOM   1580  C2'   G A  65      22.397  -5.955 -20.084  1.00  0.00     0.199 C 
ATOM   1581  O2'   G A  65      23.702  -6.445 -19.840  1.00  0.00    -0.388 OA
ATOM   1582 'HO2   G A  65      23.700  -6.801 -18.952  1.00  0.00     0.210 HD
ATOM   1583  C3'   G A  65      21.372  -6.682 -19.221  1.00  0.00     0.198 C 
ATOM   1584  O3'   G A  65      21.854  -6.935 -17.903  1.00  0.00    -0.279 OA
ATOM   1585  P     G A  66      21.437  -5.955 -16.695  1.00  0.00     0.408 P 
ATOM   1586  OP1   G A  66      21.854  -6.617 -15.432  1.00  0.00    -0.624 OA
ATOM   1587  OP2   G A  66      20.020  -5.551 -16.877  1.00  0.00    -0.624 OA
ATOM   1588  O5'   G A  66      22.357  -4.670 -16.899  1.00  0.00    -0.287 OA
ATOM   1589  C5'   G A  66      23.776  -4.788 -17.004  1.00  0.00     0.216 C 
ATOM   1590  C4'   G A  66      24.407  -3.417 -17.088  1.00  0.00     0.180 C 
ATOM   1591  O4'   G A  66      23.793  -2.689 -18.189  1.00  0.00    -0.353 OA
ATOM   1592  C1'   G A  66      23.194  -1.506 -17.703  1.00  0.00     0.262 C 
ATOM   1593  N9    G A  66      21.971  -1.264 -18.460  1.00  0.00    -0.293 N 
ATOM   1594  C4    G A  66      21.654  -0.119 -19.147  1.00  0.00     0.187 A 
ATOM   1595  N3    G A  66      22.424   0.986 -19.244  1.00  0.00    -0.044 NA
ATOM   1596  C2    G A  66      21.850   1.923 -19.976  1.00  0.00     0.703 A 
ATOM   1597  N2    G A  66      22.481   3.082 -20.181  1.00  0.00    -0.233 N 
ATOM   1598  H21   G A  66      23.393   3.228 -19.773  1.00  0.00     0.174 HD
ATOM   1599  H22   G A  66      22.051   3.801 -20.746  1.00  0.00     0.174 HD
ATOM   1600  N1    G A  66      20.617   1.793 -20.562  1.00  0.00    -0.153 N 
ATOM   1601  H1    G A  66      20.269   2.573 -21.097  1.00  0.00     0.187 HD
ATOM   1602  C6    G A  66      19.806   0.666 -20.476  1.00  0.00     0.292 A 
ATOM   1603  O6    G A  66      18.709   0.655 -21.045  1.00  0.00    -0.265 OA
ATOM   1604  C5    G A  66      20.412  -0.353 -19.697  1.00  0.00     0.173 A 
ATOM   1605  N7    G A  66      19.956  -1.622 -19.360  1.00  0.00    -0.234 NA
ATOM   1606  C8    G A  66      20.913  -2.122 -18.629  1.00  0.00     0.214 A 
ATOM   1607  C2'   G A  66      22.980  -1.716 -16.209  1.00  0.00     0.199 C 
ATOM   1608  O2'   G A  66      22.997  -0.456 -15.565  1.00  0.00    -0.388 OA
ATOM   1609 'HO2   G A  66      23.916  -0.250 -15.389  1.00  0.00     0.210 HD
ATOM   1610  C3'   G A  66      24.215  -2.537 -15.854  1.00  0.00     0.198 C 
ATOM   1611  O3'   G A  66      25.355  -1.715 -15.617  1.00  0.00    -0.279 OA
ATOM   1612  P     C A  67      26.615  -2.306 -14.809  1.00  0.00     0.408 P 
ATOM   1613  OP1   C A  67      26.609  -3.783 -14.968  1.00  0.00    -0.624 OA
ATOM   1614  OP2   C A  67      26.602  -1.716 -13.446  1.00  0.00    -0.624 OA
ATOM   1615  O5'   C A  67      27.881  -1.732 -15.587  1.00  0.00    -0.287 OA
ATOM   1616  C5'   C A  67      27.970  -1.803 -17.010  1.00  0.00     0.216 C 
ATOM   1617  C4'   C A  67      28.069  -0.414 -17.594  1.00  0.00     0.180 C 
ATOM   1618  O4'   C A  67      28.411  -0.530 -19.004  1.00  0.00    -0.353 OA
ATOM   1619  C1'   C A  67      27.386   0.038 -19.794  1.00  0.00     0.264 C 
ATOM   1620  N1    C A  67      27.200  -0.800 -20.991  1.00  0.00    -0.278 N 
ATOM   1621  C6    C A  67      27.365  -0.275 -22.243  1.00  0.00     0.102 A 
ATOM   1622  C2    C A  67      26.852  -2.146 -20.833  1.00  0.00     0.352 A 
ATOM   1623  O2    C A  67      26.705  -2.599 -19.689  1.00  0.00    -0.244 OA
ATOM   1624  N3    C A  67      26.682  -2.919 -21.928  1.00  0.00    -0.177 NA
ATOM   1625  C4    C A  67      26.845  -2.397 -23.144  1.00  0.00     0.128 A 
ATOM   1626  N4    C A  67      26.668  -3.199 -24.192  1.00  0.00    -0.384 N 
ATOM   1627  H41   C A  67      26.782  -2.843 -25.128  1.00  0.00     0.157 HD
ATOM   1628  H42   C A  67      26.420  -4.166 -24.042  1.00  0.00     0.157 HD
ATOM   1629  C5    C A  67      27.196  -1.030 -23.336  1.00  0.00     0.067 A 
ATOM   1630  C2'   C A  67      26.149   0.138 -18.909  1.00  0.00     0.199 C 
ATOM   1631  O2'   C A  67      25.374   1.242 -19.336  1.00  0.00    -0.388 OA
ATOM   1632 'HO2   C A  67      25.335   1.852 -18.599  1.00  0.00     0.210 HD
ATOM   1633  C3'   C A  67      26.780   0.402 -17.546  1.00  0.00     0.198 C 
ATOM   1634  O3'   C A  67      27.050   1.785 -17.335  1.00  0.00    -0.279 OA
ATOM   1635  P     U A  68      26.946   2.404 -15.853  1.00  0.00     0.408 P 
ATOM   1636  OP1   U A  68      27.319   3.837 -15.948  1.00  0.00    -0.624 OA
ATOM   1637  OP2   U A  68      27.681   1.515 -14.919  1.00  0.00    -0.624 OA
ATOM   1638  O5'   U A  68      25.392   2.318 -15.512  1.00  0.00    -0.287 OA
ATOM   1639  C5'   U A  68      24.424   3.003 -16.305  1.00  0.00     0.216 C 
ATOM   1640  C4'   U A  68      23.978   4.269 -15.609  1.00  0.00     0.180 C 
ATOM   1641  O4'   U A  68      22.530   4.364 -15.710  1.00  0.00    -0.353 OA
ATOM   1642  C1'   U A  68      21.946   4.138 -14.439  1.00  0.00     0.264 C 
ATOM   1643  N1    U A  68      20.827   3.200 -14.609  1.00  0.00    -0.280 N 
ATOM   1644  C6    U A  68      21.038   1.906 -15.027  1.00  0.00     0.104 A 
ATOM   1645  C2    U A  68      19.553   3.663 -14.335  1.00  0.00     0.331 A 
ATOM   1646  O2    U A  68      19.326   4.800 -13.963  1.00  0.00    -0.246 OA
ATOM   1647  N3    U A  68      18.552   2.744 -14.518  1.00  0.00    -0.275 N 
ATOM   1648  H3    U A  68      17.614   3.061 -14.323  1.00  0.00     0.173 HD
ATOM   1649  C4    U A  68      18.689   1.440 -14.936  1.00  0.00     0.250 A 
ATOM   1650  O4    U A  68      17.686   0.739 -15.063  1.00  0.00    -0.268 OA
ATOM   1651  C5    U A  68      20.036   1.038 -15.195  1.00  0.00     0.092 A 
ATOM   1652  C2'   U A  68      23.055   3.633 -13.516  1.00  0.00     0.199 C 
ATOM   1653  O2'   U A  68      22.793   4.081 -12.200  1.00  0.00    -0.388 OA
ATOM   1654 'HO2   U A  68      23.615   4.030 -11.710  1.00  0.00     0.210 HD
ATOM   1655  C3'   U A  68      24.266   4.336 -14.114  1.00  0.00     0.198 C 
ATOM   1656  O3'   U A  68      24.378   5.684 -13.662  1.00  0.00    -0.279 OA
ATOM   1657  P     U A  69      25.820   6.391 -13.595  1.00  0.00     0.408 P 
ATOM   1658  OP1   U A  69      26.181   6.798 -14.978  1.00  0.00    -0.624 OA
ATOM   1659  OP2   U A  69      26.739   5.516 -12.824  1.00  0.00    -0.624 OA
ATOM   1660  O5'   U A  69      25.557   7.714 -12.745  1.00  0.00    -0.287 OA
ATOM   1661  C5'   U A  69      24.334   8.438 -12.868  1.00  0.00     0.216 C 
ATOM   1662  C4'   U A  69      23.543   8.348 -11.584  1.00  0.00     0.180 C 
ATOM   1663  O4'   U A  69      22.383   9.219 -11.700  1.00  0.00    -0.353 OA
ATOM   1664  C1'   U A  69      21.198   8.457 -11.579  1.00  0.00     0.264 C 
ATOM   1665  N1    U A  69      20.210   8.990 -12.526  1.00  0.00    -0.280 N 
ATOM   1666  C6    U A  69      20.394   8.879 -13.887  1.00  0.00     0.104 A 
ATOM   1667  C2    U A  69      19.086   9.608 -12.010  1.00  0.00     0.331 A 
ATOM   1668  O2    U A  69      18.884   9.725 -10.814  1.00  0.00    -0.246 OA
ATOM   1669  N3    U A  69      18.205  10.086 -12.945  1.00  0.00    -0.275 N 
ATOM   1670  H3    U A  69      17.385  10.552 -12.591  1.00  0.00     0.173 HD
ATOM   1671  C4    U A  69      18.325  10.008 -14.313  1.00  0.00     0.250 A 
ATOM   1672  O4    U A  69      17.442  10.486 -15.025  1.00  0.00    -0.268 OA
ATOM   1673  C5    U A  69      19.511   9.354 -14.769  1.00  0.00     0.092 A 
ATOM   1674  C2'   U A  69      21.581   7.002 -11.829  1.00  0.00     0.199 C 
ATOM   1675  O2'   U A  69      20.703   6.171 -11.093  1.00  0.00    -0.388 OA
ATOM   1676 'HO2   U A  69      21.188   5.868 -10.325  1.00  0.00     0.210 HD
ATOM   1677  C3'   U A  69      22.992   6.963 -11.253  1.00  0.00     0.198 C 
ATOM   1678  O3'   U A  69      22.990   6.722  -9.848  1.00  0.00    -0.279 OA
ATOM   1679  P     G A  70      24.202   5.906  -9.175  1.00  0.00     0.408 P 
ATOM   1680  OP1   G A  70      25.241   6.896  -8.791  1.00  0.00    -0.624 OA
ATOM   1681  OP2   G A  70      24.563   4.771 -10.064  1.00  0.00    -0.624 OA
ATOM   1682  O5'   G A  70      23.571   5.310  -7.839  1.00  0.00    -0.287 OA
ATOM   1683  C5'   G A  70      22.699   6.092  -7.023  1.00  0.00     0.216 C 
ATOM   1684  C4'   G A  70      21.982   5.209  -6.028  1.00  0.00     0.180 C 
ATOM   1685  O4'   G A  70      20.726   4.773  -6.619  1.00  0.00    -0.353 OA
ATOM   1686  C1'   G A  70      20.522   3.398  -6.355  1.00  0.00     0.262 C 
ATOM   1687  N9    G A  70      20.624   2.665  -7.613  1.00  0.00    -0.293 N 
ATOM   1688  C4    G A  70      20.368   1.328  -7.802  1.00  0.00     0.187 A 
ATOM   1689  N3    G A  70      19.975   0.454  -6.851  1.00  0.00    -0.044 NA
ATOM   1690  C2    G A  70      19.810  -0.762  -7.337  1.00  0.00     0.703 A 
ATOM   1691  N2    G A  70      19.427  -1.753  -6.525  1.00  0.00    -0.233 N 
ATOM   1692  H21   G A  70      19.270  -1.551  -5.548  1.00  0.00     0.174 HD
ATOM   1693  H22   G A  70      19.302  -2.689  -6.879  1.00  0.00     0.174 HD
ATOM   1694  N1    G A  70      20.009  -1.098  -8.651  1.00  0.00    -0.153 N 
ATOM   1695  H1    G A  70      19.854  -2.056  -8.923  1.00  0.00     0.187 HD
ATOM   1696  C6    G A  70      20.412  -0.217  -9.649  1.00  0.00     0.292 A 
ATOM   1697  O6    G A  70      20.561  -0.626 -10.806  1.00  0.00    -0.265 OA
ATOM   1698  C5    G A  70      20.596   1.097  -9.141  1.00  0.00     0.173 A 
ATOM   1699  N7    G A  70      20.989   2.263  -9.783  1.00  0.00    -0.234 NA
ATOM   1700  C8    G A  70      20.990   3.164  -8.839  1.00  0.00     0.214 A 
ATOM   1701  C2'   G A  70      21.556   2.977  -5.313  1.00  0.00     0.199 C 
ATOM   1702  O2'   G A  70      21.027   3.236  -4.026  1.00  0.00    -0.388 OA
ATOM   1703 'HO2   G A  70      20.293   3.840  -4.138  1.00  0.00     0.210 HD
ATOM   1704  C3'   G A  70      22.705   3.922  -5.646  1.00  0.00     0.198 C 
ATOM   1705  O3'   G A  70      23.581   4.121  -4.538  1.00  0.00    -0.279 OA
ATOM   1706  P     U A  71      24.724   3.036  -4.218  1.00  0.00     0.408 P 
ATOM   1707  OP1   U A  71      25.448   3.509  -3.011  1.00  0.00    -0.624 OA
ATOM   1708  OP2   U A  71      25.479   2.764  -5.467  1.00  0.00    -0.624 OA
ATOM   1709  O5'   U A  71      23.912   1.722  -3.823  1.00  0.00    -0.287 OA
ATOM   1710  C5'   U A  71      24.588   0.544  -3.382  1.00  0.00     0.216 C 
ATOM   1711  C4'   U A  71      23.981  -0.679  -4.030  1.00  0.00     0.180 C 
ATOM   1712  O4'   U A  71      24.868  -1.125  -5.093  1.00  0.00    -0.353 OA
ATOM   1713  C1'   U A  71      25.446  -2.370  -4.746  1.00  0.00     0.264 C 
ATOM   1714  N1    U A  71      26.877  -2.324  -5.085  1.00  0.00    -0.280 N 
ATOM   1715  C6    U A  71      27.400  -3.144  -6.059  1.00  0.00     0.104 A 
ATOM   1716  C2    U A  71      27.683  -1.434  -4.395  1.00  0.00     0.331 A 
ATOM   1717  O2    U A  71      27.264  -0.693  -3.524  1.00  0.00    -0.246 OA
ATOM   1718  N3    U A  71      29.003  -1.443  -4.764  1.00  0.00    -0.275 N 
ATOM   1719  H3    U A  71      29.609  -0.797  -4.281  1.00  0.00     0.173 HD
ATOM   1720  C4    U A  71      29.590  -2.233  -5.727  1.00  0.00     0.250 A 
ATOM   1721  O4    U A  71      30.797  -2.126  -5.942  1.00  0.00    -0.268 OA
ATOM   1722  C5    U A  71      28.693  -3.126  -6.391  1.00  0.00     0.092 A 
ATOM   1723  C2'   U A  71      25.157  -2.600  -3.264  1.00  0.00     0.199 C 
ATOM   1724  O2'   U A  71      25.028  -3.992  -3.038  1.00  0.00    -0.388 OA
ATOM   1725 'HO2   U A  71      24.098  -4.160  -2.881  1.00  0.00     0.210 HD
ATOM   1726  C3'   U A  71      23.817  -1.889  -3.118  1.00  0.00     0.198 C 
ATOM   1727  O3'   U A  71      22.727  -2.715  -3.526  1.00  0.00    -0.279 OA
ATOM   1728  P     C A  72      21.251  -2.435  -2.951  1.00  0.00     0.408 P 
ATOM   1729  OP1   C A  72      20.553  -3.743  -2.876  1.00  0.00    -0.624 OA
ATOM   1730  OP2   C A  72      20.648  -1.328  -3.736  1.00  0.00    -0.624 OA
ATOM   1731  O5'   C A  72      21.501  -1.916  -1.465  1.00  0.00    -0.287 OA
ATOM   1732  C5'   C A  72      21.866  -2.817  -0.419  1.00  0.00     0.216 C 
ATOM   1733  C4'   C A  72      21.669  -2.159   0.927  1.00  0.00     0.180 C 
ATOM   1734  O4'   C A  72      22.678  -1.126   1.090  1.00  0.00    -0.353 OA
ATOM   1735  C1'   C A  72      22.093   0.034   1.654  1.00  0.00     0.264 C 
ATOM   1736  N1    C A  72      22.147   1.114   0.655  1.00  0.00    -0.278 N 
ATOM   1737  C6    C A  72      22.037   0.839  -0.680  1.00  0.00     0.102 A 
ATOM   1738  C2    C A  72      22.312   2.431   1.092  1.00  0.00     0.352 A 
ATOM   1739  O2    C A  72      22.410   2.652   2.308  1.00  0.00    -0.244 OA
ATOM   1740  N3    C A  72      22.362   3.428   0.182  1.00  0.00    -0.177 NA
ATOM   1741  C4    C A  72      22.254   3.149  -1.118  1.00  0.00     0.128 A 
ATOM   1742  N4    C A  72      22.306   4.163  -1.976  1.00  0.00    -0.384 N 
ATOM   1743  H41   C A  72      22.225   3.983  -2.967  1.00  0.00     0.157 HD
ATOM   1744  H42   C A  72      22.428   5.105  -1.638  1.00  0.00     0.157 HD
ATOM   1745  C5    C A  72      22.086   1.816  -1.592  1.00  0.00     0.067 A 
ATOM   1746  C2'   C A  72      20.674  -0.331   2.091  1.00  0.00     0.199 C 
ATOM   1747  O2'   C A  72      20.716  -0.813   3.422  1.00  0.00    -0.388 OA
ATOM   1748 'HO2   C A  72      20.499  -1.745   3.388  1.00  0.00     0.210 HD
ATOM   1749  C3'   C A  72      20.335  -1.447   1.111  1.00  0.00     0.198 C 
ATOM   1750  O3'   C A  72      19.342  -2.333   1.620  1.00  0.00    -0.279 OA
ATOM   1751  P     C A  73      17.802  -1.871   1.668  1.00  0.00     0.408 P 
ATOM   1752  OP1   C A  73      17.011  -2.911   0.963  1.00  0.00    -0.624 OA
ATOM   1753  OP2   C A  73      17.716  -0.455   1.222  1.00  0.00    -0.624 OA
ATOM   1754  O5'   C A  73      17.431  -1.931   3.216  1.00  0.00    -0.287 OA
ATOM   1755  C5'   C A  73      17.857  -3.021   4.035  1.00  0.00     0.216 C 
ATOM   1756  C4'   C A  73      17.050  -3.060   5.313  1.00  0.00     0.180 C 
ATOM   1757  O4'   C A  73      17.419  -1.915   6.131  1.00  0.00    -0.353 OA
ATOM   1758  C1'   C A  73      16.344  -0.995   6.183  1.00  0.00     0.264 C 
ATOM   1759  N1    C A  73      16.877   0.355   5.937  1.00  0.00    -0.278 N 
ATOM   1760  C6    C A  73      17.854   0.561   5.002  1.00  0.00     0.102 A 
ATOM   1761  C2    C A  73      16.366   1.428   6.672  1.00  0.00     0.352 A 
ATOM   1762  O2    C A  73      15.486   1.212   7.516  1.00  0.00    -0.244 OA
ATOM   1763  N3    C A  73      16.847   2.671   6.447  1.00  0.00    -0.177 NA
ATOM   1764  C4    C A  73      17.796   2.862   5.530  1.00  0.00     0.128 A 
ATOM   1765  N4    C A  73      18.234   4.105   5.341  1.00  0.00    -0.384 N 
ATOM   1766  H41   C A  73      18.950   4.283   4.653  1.00  0.00     0.157 HD
ATOM   1767  H42   C A  73      17.846   4.863   5.881  1.00  0.00     0.157 HD
ATOM   1768  C5    C A  73      18.337   1.787   4.768  1.00  0.00     0.067 A 
ATOM   1769  C2'   C A  73      15.307  -1.445   5.154  1.00  0.00     0.199 C 
ATOM   1770  O2'   C A  73      14.015  -1.136   5.645  1.00  0.00    -0.388 OA
ATOM   1771 'HO2   C A  73      13.713  -1.905   6.129  1.00  0.00     0.210 HD
ATOM   1772  C3'   C A  73      15.540  -2.952   5.136  1.00  0.00     0.198 C 
ATOM   1773  O3'   C A  73      14.834  -3.614   6.183  1.00  0.00    -0.279 OA
ATOM   1774  P     A A  74      14.721  -5.219   6.185  1.00  0.00     0.408 P 
ATOM   1775  OP1   A A  74      15.562  -5.736   5.072  1.00  0.00    -0.624 OA
ATOM   1776  OP2   A A  74      13.282  -5.578   6.242  1.00  0.00    -0.624 OA
ATOM   1777  O5'   A A  74      15.394  -5.647   7.566  1.00  0.00    -0.287 OA
ATOM   1778  C5'   A A  74      16.364  -6.692   7.621  1.00  0.00     0.216 C 
ATOM   1779  C4'   A A  74      16.622  -7.085   9.056  1.00  0.00     0.180 C 
ATOM   1780  O4'   A A  74      16.278  -8.490   9.217  1.00  0.00    -0.353 OA
ATOM   1781  C1'   A A  74      17.419  -9.221   9.614  1.00  0.00     0.262 C 
ATOM   1782  N9    A A  74      17.394 -10.515   8.930  1.00  0.00    -0.294 N 
ATOM   1783  C4    A A  74      16.873 -11.685   9.428  1.00  0.00     0.167 A 
ATOM   1784  N3    A A  74      16.292 -11.873  10.626  1.00  0.00    -0.222 NA
ATOM   1785  C2    A A  74      15.906 -13.139  10.766  1.00  0.00     0.237 A 
ATOM   1786  N1    A A  74      16.028 -14.162   9.910  1.00  0.00    -0.222 NA
ATOM   1787  C6    A A  74      16.618 -13.937   8.717  1.00  0.00     0.155 A 
ATOM   1788  N6    A A  74      16.740 -14.957   7.867  1.00  0.00    -0.382 N 
ATOM   1789  H61   A A  74      17.178 -14.812   6.968  1.00  0.00     0.157 HD
ATOM   1790  H62   A A  74      16.399 -15.870   8.128  1.00  0.00     0.157 HD
ATOM   1791  C5    A A  74      17.071 -12.635   8.445  1.00  0.00     0.149 A 
ATOM   1792  N7    A A  74      17.703 -12.076   7.342  1.00  0.00    -0.236 NA
ATOM   1793  C8    A A  74      17.873 -10.821   7.680  1.00  0.00     0.214 A 
ATOM   1794  C2'   A A  74      18.632  -8.357   9.281  1.00  0.00     0.199 C 
ATOM   1795  O2'   A A  74      19.668  -8.657  10.199  1.00  0.00    -0.388 OA
ATOM   1796 'HO2   A A  74      19.499  -8.144  10.991  1.00  0.00     0.210 HD
ATOM   1797  C3'   A A  74      18.073  -6.958   9.514  1.00  0.00     0.198 C 
ATOM   1798  O3'   A A  74      18.149  -6.560  10.881  1.00  0.00    -0.279 OA
ATOM   1799  P     A A  75      19.251  -5.481  11.341  1.00  0.00     0.408 P 
ATOM   1800  OP1   A A  75      19.305  -4.417  10.307  1.00  0.00    -0.624 OA
ATOM   1801  OP2   A A  75      20.490  -6.214  11.705  1.00  0.00    -0.624 OA
ATOM   1802  O5'   A A  75      18.637  -4.846  12.667  1.00  0.00    -0.287 OA
ATOM   1803  C5'   A A  75      18.467  -5.626  13.851  1.00  0.00     0.216 C 
ATOM   1804  C4'   A A  75      17.031  -5.561  14.318  1.00  0.00     0.180 C 
ATOM   1805  O4'   A A  75      16.511  -4.229  14.049  1.00  0.00    -0.353 OA
ATOM   1806  C1'   A A  75      15.557  -4.288  13.004  1.00  0.00     0.262 C 
ATOM   1807  N9    A A  75      15.854  -3.218  12.051  1.00  0.00    -0.294 N 
ATOM   1808  C4    A A  75      15.922  -1.875  12.337  1.00  0.00     0.167 A 
ATOM   1809  N3    A A  75      15.733  -1.285  13.529  1.00  0.00    -0.222 NA
ATOM   1810  C2    A A  75      15.877   0.036  13.428  1.00  0.00     0.237 A 
ATOM   1811  N1    A A  75      16.166   0.776  12.350  1.00  0.00    -0.222 NA
ATOM   1812  C6    A A  75      16.349   0.151  11.167  1.00  0.00     0.155 A 
ATOM   1813  N6    A A  75      16.635   0.889  10.095  1.00  0.00    -0.382 N 
ATOM   1814  H61   A A  75      16.775   0.444   9.198  1.00  0.00     0.157 HD
ATOM   1815  H62   A A  75      16.707   1.892  10.179  1.00  0.00     0.157 HD
ATOM   1816  C5    A A  75      16.224  -1.249  11.141  1.00  0.00     0.149 A 
ATOM   1817  N7    A A  75      16.346  -2.180  10.118  1.00  0.00    -0.236 NA
ATOM   1818  C8    A A  75      16.118  -3.328  10.708  1.00  0.00     0.214 A 
ATOM   1819  C2'   A A  75      15.624  -5.692  12.405  1.00  0.00     0.198 C 
ATOM   1820  O2'   A A  75      14.324  -6.062  11.984  1.00  0.00    -0.388 OA
ATOM   1821 'HO2   A A  75      14.173  -6.960  12.282  1.00  0.00     0.210 HD
ATOM   1822  C3'   A A  75      16.073  -6.510  13.610  1.00  0.00     0.182 C 
ATOM   1823  O3'   A A  75      14.979  -6.897  14.451  1.00  0.00    -0.390 OA
ATOM   1824 'HO3   A A  75      14.540  -6.092  14.734  1.00  0.00     0.210 HD
ENDROOT
TORSDOF 576
ENDMDL
MODEL 2
REMARK VINA RESULT:     -21.1     39.129     66.686
REMARK  0 active torsions:
REMARK  status: ('A' for Active; 'I' for Inactive)
REMARK       I    between atoms: O5'_2  and  C5'_3 
REMARK       I    between atoms: C5'_3  and  C4'_4 
REMARK       I    between atoms: C1'_6  and  N9_7 
REMARK       I    between atoms: C2_10  and  N2_11 
REMARK       I    between atoms: C2'_21  and  O2'_22 
REMARK       I    between atoms: C3'_24  and  O3'_25 
REMARK       I    between atoms: O3'_25  and  P_26 
REMARK       I    between atoms: P_26  and  O5'_29 
REMARK       I    between atoms: O5'_29  and  C5'_30 
REMARK       I    between atoms: C5'_30  and  C4'_31 
REMARK       I    between atoms: C1'_33  and  N9_34 
REMARK       I    between atoms: C2_37  and  N2_38 
REMARK       I    between atoms: C2'_48  and  O2'_49 
REMARK       I    between atoms: C3'_51  and  O3'_52 
REMARK       I    between atoms: O3'_52  and  P_53 
REMARK       I    between atoms: P_53  and  O5'_56 
REMARK       I    between atoms: O5'_56  and  C5'_57 
REMARK       I    between atoms: C5'_57  and  C4'_58 
REMARK       I    between atoms: C1'_60  and  N9_61 
REMARK       I    between atoms: C2_64  and  N2_65 
REMARK       I    between atoms: C2'_75  and  O2'_76 
REMARK       I    between atoms: C3'_78  and  O3'_79 
REMARK       I    between atoms: O3'_79  and  P_80 
REMARK       I    between atoms: P_80  and  O5'_83 
REMARK       I    between atoms: O5'_83  and  C5'_84 
REMARK       I    between atoms: C5'_84  and  C4'_85 
REMARK       I    between atoms: C1'_87  and  N1_88 
REMARK       I    between atoms: C4_93  and  N4_94 
REMARK       I    between atoms: C2'_98  and  O2'_99 
REMARK       I    between atoms: C3'_101  and  O3'_102 
REMARK       I    between atoms: O3'_102  and  P_103 
REMARK       I    between atoms: P_103  and  O5'_106 
REMARK       I    between atoms: O5'_106  and  C5'_107 
REMARK       I    between atoms: C5'_107  and  C4'_108 
REMARK       I    between atoms: C1'_110  and  N9_111 
REMARK       I    between atoms: C6_116  and  N6_117 
REMARK       I    between atoms: C2'_123  and  O2'_124 
REMARK       I    between atoms: C3'_126  and  O3'_127 
REMARK       I    between atoms: O3'_127  and  P_128 
REMARK       I    between atoms: P_128  and  O5'_131 
REMARK       I    between atoms: O5'_131  and  C5'_132 
REMARK       I    between atoms: C5'_132  and  C4'_133 
REMARK       I    between atoms: C1'_135  and  N1_136 
REMARK       I    between atoms: C2'_145  and  O2'_146 
REMARK       I    between atoms: C3'_148  and  O3'_149 
REMARK       I    between atoms: O3'_149  and  P_150 
REMARK       I    between atoms: P_150  and  O5'_153 
REMARK       I    between atoms: O5'_153  and  C5'_154 
REMARK       I    between atoms: C5'_154  and  C4'_155 
REMARK       I    between atoms: C1'_157  and  N9_158 
REMARK       I    between atoms: C2_161  and  N2_162 
REMARK       I    between atoms: C2'_172  and  O2'_173 
REMARK       I    between atoms: C3'_175  and  O3'_176 
REMARK       I    between atoms: O3'_176  and  P_177 
REMARK       I    between atoms: P_177  and  O5'_180 
REMARK       I    between atoms: O5'_180  and  C5'_181 
REMARK       I    between atoms: C5'_181  and  C4'_182 
REMARK       I    between atoms: C1'_184  and  N1_185 
REMARK       I    between atoms: C2'_194  and  O2'_195 
REMARK       I    between atoms: C3'_197  and  O3'_198 
REMARK       I    between atoms: O3'_198  and  P_199 
REMARK       I    between atoms: P_199  and  O5'_202 
REMARK       I    between atoms: O5'_202  and  C5'_203 
REMARK       I    between atoms: C5'_203  and  C4'_204 
REMARK       I    between atoms: C1'_206  and  N9_207 
REMARK       I    between atoms: C2_210  and  N2_211 
REMARK       I    between atoms: C2'_221  and  O2'_222 
REMARK       I    between atoms: C3'_224  and  O3'_225 
REMARK       I    between atoms: O3'_225  and  P_226 
REMARK       I    between atoms: P_226  and  O5'_229 
REMARK       I    between atoms: O5'_229  and  C5'_230 
REMARK       I    between atoms: C5'_230  and  C4'_231 
REMARK       I    between atoms: C1'_233  and  N9_234 
REMARK       I    between atoms: C2_237  and  N2_238 
REMARK       I    between atoms: C2'_248  and  O2'_249 
REMARK       I    between atoms: C3'_251  and  O3'_252 
REMARK       I    between atoms: O3'_252  and  P_253 
REMARK       I    between atoms: P_253  and  O5'_256 
REMARK       I    between atoms: O5'_256  and  C5'_257 
REMARK       I    between atoms: C5'_257  and  C4'_258 
REMARK       I    between atoms: C1'_260  and  N1_261 
REMARK       I    between atoms: C2'_270  and  O2'_271 
REMARK       I    between atoms: C3'_273  and  O3'_274 
REMARK       I    between atoms: O3'_274  and  P_275 
REMARK       I    between atoms: P_275  and  O5'_278 
REMARK       I    between atoms: O5'_278  and  C5'_279 
REMARK       I    between atoms: C5'_279  and  C4'_280 
REMARK       I    between atoms: C1'_282  and  N9_283 
REMARK       I    between atoms: C2_286  and  N2_287 
REMARK       I    between atoms: C2'_297  and  O2'_298 
REMARK       I    between atoms: C3'_300  and  O3'_301 
REMARK       I    between atoms: O3'_301  and  P_302 
REMARK       I    between atoms: P_302  and  O5'_305 
REMARK       I    between atoms: O5'_305  and  C5'_306 
REMARK       I    between atoms: C5'_306  and  C4'_307 
REMARK       I    between atoms: C1'_309  and  N1_310 
REMARK       I    between atoms: C2'_319  and  O2'_320 
REMARK       I    between atoms: C3'_322  and  O3'_323 
REMARK       I    between atoms: O3'_323  and  P_324 
REMARK       I    between atoms: P_324  and  O5'_327 
REMARK       I    between atoms: O5'_327  and  C5'_328 
REMARK       I    between atoms: C5'_328  and  C4'_329 
REMARK       I    between atoms: C1'_331  and  N9_332 
REMARK       I    between atoms: C6_337  and  N6_338 
REMARK       I    between atoms: C2'_344  and  O2'_345 
REMARK       I    between atoms: C3'_347  and  O3'_348 
REMARK       I    between atoms: O3'_348  and  P_349 
REMARK       I    between atoms: P_349  and  O5'_352 
REMARK       I    between atoms: O5'_352  and  C5'_353 
REMARK       I    between atoms: C5'_353  and  C4'_354 
REMARK       I    between atoms: C1'_356  and  N9_357 
REMARK       I    between atoms: C2_360  and  N2_361 
REMARK       I    between atoms: C2'_371  and  O2'_372 
REMARK       I    between atoms: C3'_374  and  O3'_375 
REMARK       I    between atoms: O3'_375  and  P_376 
REMARK       I    between atoms: P_376  and  O5'_379 
REMARK       I    between atoms: O5'_379  and  C5'_380 
REMARK       I    between atoms: C5'_380  and  C4'_381 
REMARK       I    between atoms: C1'_383  and  N9_384 
REMARK       I    between atoms: C6_389  and  N6_390 
REMARK       I    between atoms: C2'_396  and  O2'_397 
REMARK       I    between atoms: C3'_399  and  O3'_400 
REMARK       I    between atoms: O3'_400  and  P_401 
REMARK       I    between atoms: P_401  and  O5'_404 
REMARK       I    between atoms: O5'_404  and  C5'_405 
REMARK       I    between atoms: C5'_405  and  C4'_406 
REMARK       I    between atoms: C1'_408  and  N1_409 
REMARK       I    between atoms: C2'_418  and  O2'_419 
REMARK       I    between atoms: C3'_421  and  O3'_422 
REMARK       I    between atoms: O3'_422  and  P_423 
REMARK       I    between atoms: P_423  and  O5'_426 
REMARK       I    between atoms: O5'_426  and  C5'_427 
REMARK       I    between atoms: C5'_427  and  C4'_428 
REMARK       I    between atoms: C1'_430  and  N9_431 
REMARK       I    between atoms: C2_434  and  N2_435 
REMARK       I    between atoms: C2'_445  and  O2'_446 
REMARK       I    between atoms: C3'_448  and  O3'_449 
REMARK       I    between atoms: O3'_449  and  P_450 
REMARK       I    between atoms: P_450  and  O5'_453 
REMARK       I    between atoms: O5'_453  and  C5'_454 
REMARK       I    between atoms: C5'_454  and  C4'_455 
REMARK       I    between atoms: C1'_457  and  N9_458 
REMARK       I    between atoms: C2_461  and  N2_462 
REMARK       I    between atoms: C2'_472  and  O2'_473 
REMARK       I    between atoms: C3'_475  and  O3'_476 
REMARK       I    between atoms: O3'_476  and  P_477 
REMARK       I    between atoms: P_477  and  O5'_480 
REMARK       I    between atoms: O5'_480  and  C5'_481 
REMARK       I    between atoms: C5'_481  and  C4'_482 
REMARK       I    between atoms: C1'_484  and  N1_485 
REMARK       I    between atoms: C2'_494  and  O2'_495 
REMARK       I    between atoms: C3'_497  and  O3'_498 
REMARK       I    between atoms: O3'_498  and  P_499 
REMARK       I    between atoms: P_499  and  O5'_502 
REMARK       I    between atoms: O5'_502  and  C5'_503 
REMARK       I    between atoms: C5'_503  and  C4'_504 
REMARK       I    between atoms: C1'_506  and  N1_507 
REMARK       I    between atoms: C2'_516  and  O2'_517 
REMARK       I    between atoms: C3'_519  and  O3'_520 
REMARK       I    between atoms: O3'_520  and  P_521 
REMARK       I    between atoms: P_521  and  O5'_524 
REMARK       I    between atoms: O5'_524  and  C5'_525 
REMARK       I    between atoms: C5'_525  and  C4'_526 
REMARK       I    between atoms: C1'_528  and  N9_529 
REMARK       I    between atoms: C6_534  and  N6_535 
REMARK       I    between atoms: C2'_541  and  O2'_542 
REMARK       I    between atoms: C3'_544  and  O3'_545 
REMARK       I    between atoms: O3'_545  and  P_546 
REMARK       I    between atoms: P_546  and  O5'_549 
REMARK       I    between atoms: O5'_549  and  C5'_550 
REMARK       I    between atoms: C5'_550  and  C4'_551 
REMARK       I    between atoms: C1'_553  and  N1_554 
REMARK       I    between atoms: C2'_563  and  O2'_564 
REMARK       I    between atoms: C3'_566  and  O3'_567 
REMARK       I    between atoms: O3'_567  and  P_568 
REMARK       I    between atoms: P_568  and  O5'_571 
REMARK       I    between atoms: O5'_571  and  C5'_572 
REMARK       I    between atoms: C5'_572  and  C4'_573 
REMARK       I    between atoms: C1'_575  and  N1_576 
REMARK       I    between atoms: C4_581  and  N4_582 
REMARK       I    between atoms: C2'_586  and  O2'_587 
REMARK       I    between atoms: C3'_589  and  O3'_590 
REMARK       I    between atoms: O3'_590  and  P_591 
REMARK       I    between atoms: P_591  and  O5'_594 
REMARK       I    between atoms: O5'_594  and  C5'_595 
REMARK       I    between atoms: C5'_595  and  C4'_596 
REMARK       I    between atoms: C1'_598  and  N9_599 
REMARK       I    between atoms: C6_604  and  N6_605 
REMARK       I    between atoms: C2'_611  and  O2'_612 
REMARK       I    between atoms: C3'_614  and  O3'_615 
REMARK       I    between atoms: O3'_615  and  P_616 
REMARK       I    between atoms: P_616  and  O5'_619 
REMARK       I    between atoms: O5'_619  and  C5'_620 
REMARK       I    between atoms: C5'_620  and  C4'_621 
REMARK       I    between atoms: C1'_623  and  N1_624 
REMARK       I    between atoms: C4_629  and  N4_630 
REMARK       I    between atoms: C2'_634  and  O2'_635 
REMARK       I    between atoms: C3'_637  and  O3'_638 
REMARK       I    between atoms: O3'_638  and  P_639 
REMARK       I    between atoms: P_639  and  O5'_642 
REMARK       I    between atoms: O5'_642  and  C5'_643 
REMARK       I    between atoms: C5'_643  and  C4'_644 
REMARK       I    between atoms: C1'_646  and  N9_647 
REMARK       I    between atoms: C2_650  and  N2_651 
REMARK       I    between atoms: C2'_661  and  O2'_662 
REMARK       I    between atoms: C3'_664  and  O3'_665 
REMARK       I    between atoms: O3'_665  and  P_666 
REMARK       I    between atoms: P_666  and  O5'_669 
REMARK       I    between atoms: O5'_669  and  C5'_670 
REMARK       I    between atoms: C5'_670  and  C4'_671 
REMARK       I    between atoms: C1'_673  and  N1_674 
REMARK       I    between atoms: C4_679  and  N4_680 
REMARK       I    between atoms: C2'_684  and  O2'_685 
REMARK       I    between atoms: C3'_687  and  O3'_688 
REMARK       I    between atoms: O3'_688  and  P_689 
REMARK       I    between atoms: P_689  and  O5'_692 
REMARK       I    between atoms: O5'_692  and  C5'_693 
REMARK       I    between atoms: C5'_693  and  C4'_694 
REMARK       I    between atoms: C1'_696  and  N1_697 
REMARK       I    between atoms: C2'_706  and  O2'_707 
REMARK       I    between atoms: C3'_709  and  O3'_710 
REMARK       I    between atoms: O3'_710  and  P_711 
REMARK       I    between atoms: P_711  and  O5'_714 
REMARK       I    between atoms: O5'_714  and  C5'_715 
REMARK       I    between atoms: C5'_715  and  C4'_716 
REMARK       I    between atoms: C1'_718  and  N1_719 
REMARK       I    between atoms: C2'_728  and  O2'_729 
REMARK       I    between atoms: C3'_731  and  O3'_732 
REMARK       I    between atoms: O3'_732  and  P_733 
REMARK       I    between atoms: P_733  and  O5'_736 
REMARK       I    between atoms: O5'_736  and  C5'_737 
REMARK       I    between atoms: C5'_737  and  C4'_738 
REMARK       I    between atoms: C1'_740  and  N1_741 
REMARK       I    between atoms: C4_746  and  N4_747 
REMARK       I    between atoms: C2'_751  and  O2'_752 
REMARK       I    between atoms: C3'_754  and  O3'_755 
REMARK       I    between atoms: O3'_755  and  P_756 
REMARK       I    between atoms: P_756  and  O5'_759 
REMARK       I    between atoms: O5'_759  and  C5'_760 
REMARK       I    between atoms: C5'_760  and  C4'_761 
REMARK       I    between atoms: C1'_763  and  N1_764 
REMARK       I    between atoms: C4_769  and  N4_770 
REMARK       I    between atoms: C2'_774  and  O2'_775 
REMARK       I    between atoms: C3'_777  and  O3'_778 
REMARK       I    between atoms: O3'_778  and  P_779 
REMARK       I    between atoms: P_779  and  O5'_782 
REMARK       I    between atoms: O5'_782  and  C5'_783 
REMARK       I    between atoms: C5'_783  and  C4'_784 
REMARK       I    between atoms: C1'_786  and  N1_787 
REMARK       I    between atoms: C2'_796  and  O2'_797 
REMARK       I    between atoms: C3'_799  and  O3'_800 
REMARK       I    between atoms: O3'_800  and  P_801 
REMARK       I    between atoms: P_801  and  O5'_804 
REMARK       I    between atoms: O5'_804  and  C5'_805 
REMARK       I    between atoms: C5'_805  and  C4'_806 
REMARK       I    between atoms: C1'_808  and  N1_809 
REMARK       I    between atoms: C2'_818  and  O2'_819 
REMARK       I    between atoms: C3'_821  and  O3'_822 
REMARK       I    between atoms: O3'_822  and  P_823 
REMARK       I    between atoms: P_823  and  O5'_826 
REMARK       I    between atoms: O5'_826  and  C5'_827 
REMARK       I    between atoms: C5'_827  and  C4'_828 
REMARK       I    between atoms: C1'_830  and  N9_831 
REMARK       I    between atoms: C6_836  and  N6_837 
REMARK       I    between atoms: C2'_843  and  O2'_844 
REMARK       I    between atoms: C3'_846  and  O3'_847 
REMARK       I    between atoms: O3'_847  and  P_848 
REMARK       I    between atoms: P_848  and  O5'_851 
REMARK       I    between atoms: O5'_851  and  C5'_852 
REMARK       I    between atoms: C5'_852  and  C4'_853 
REMARK       I    between atoms: C1'_855  and  N9_856 
REMARK       I    between atoms: C2_859  and  N2_860 
REMARK       I    between atoms: C2'_870  and  O2'_871 
REMARK       I    between atoms: C3'_873  and  O3'_874 
REMARK       I    between atoms: O3'_874  and  P_875 
REMARK       I    between atoms: P_875  and  O5'_878 
REMARK       I    between atoms: O5'_878  and  C5'_879 
REMARK       I    between atoms: C5'_879  and  C4'_880 
REMARK       I    between atoms: C1'_882  and  N1_883 
REMARK       I    between atoms: C4_888  and  N4_889 
REMARK       I    between atoms: C2'_893  and  O2'_894 
REMARK       I    between atoms: C3'_896  and  O3'_897 
REMARK       I    between atoms: O3'_897  and  P_898 
REMARK       I    between atoms: P_898  and  O5'_901 
REMARK       I    between atoms: O5'_901  and  C5'_902 
REMARK       I    between atoms: C5'_902  and  C4'_903 
REMARK       I    between atoms: C1'_905  and  N9_906 
REMARK       I    between atoms: C6_911  and  N6_912 
REMARK       I    between atoms: C2'_918  and  O2'_919 
REMARK       I    between atoms: C3'_921  and  O3'_922 
REMARK       I    between atoms: O3'_922  and  P_923 
REMARK       I    between atoms: P_923  and  O5'_926 
REMARK       I    between atoms: O5'_926  and  C5'_927 
REMARK       I    between atoms: C5'_927  and  C4'_928 
REMARK       I    between atoms: C1'_930  and  N1_931 
REMARK       I    between atoms: C2'_940  and  O2'_941 
REMARK       I    between atoms: C3'_943  and  O3'_944 
REMARK       I    between atoms: O3'_944  and  P_945 
REMARK       I    between atoms: P_945  and  O5'_948 
REMARK       I    between atoms: O5'_948  and  C5'_949 
REMARK       I    between atoms: C5'_949  and  C4'_950 
REMARK       I    between atoms: C1'_952  and  N9_953 
REMARK       I    between atoms: C2_956  and  N2_957 
REMARK       I    between atoms: C2'_967  and  O2'_968 
REMARK       I    between atoms: C3'_970  and  O3'_971 
REMARK       I    between atoms: O3'_971  and  P_972 
REMARK       I    between atoms: P_972  and  O5'_975 
REMARK       I    between atoms: O5'_975  and  C5'_976 
REMARK       I    between atoms: C5'_976  and  C4'_977 
REMARK       I    between atoms: C1'_979  and  N9_980 
REMARK       I    between atoms: C2_983  and  N2_984 
REMARK       I    between atoms: C2'_994  and  O2'_995 
REMARK       I    between atoms: C3'_997  and  O3'_998 
REMARK       I    between atoms: O3'_998  and  P_999 
REMARK       I    between atoms: P_999  and  O5'_1002 
REMARK       I    between atoms: O5'_1002  and  C5'_1003 
REMARK       I    between atoms: C5'_1003  and  C4'_1004 
REMARK       I    between atoms: C1'_1006  and  N9_1007 
REMARK       I    between atoms: C6_1012  and  N6_1013 
REMARK       I    between atoms: C2'_1019  and  O2'_1020 
REMARK       I    between atoms: C3'_1022  and  O3'_1023 
REMARK       I    between atoms: O3'_1023  and  P_1024 
REMARK       I    between atoms: P_1024  and  O5'_1027 
REMARK       I    between atoms: O5'_1027  and  C5'_1028 
REMARK       I    between atoms: C5'_1028  and  C4'_1029 
REMARK       I    between atoms: C1'_1031  and  N9_1032 
REMARK       I    between atoms: C6_1037  and  N6_1038 
REMARK       I    between atoms: C2'_1044  and  O2'_1045 
REMARK       I    between atoms: C3'_1047  and  O3'_1048 
REMARK       I    between atoms: O3'_1048  and  P_1049 
REMARK       I    between atoms: P_1049  and  O5'_1052 
REMARK       I    between atoms: O5'_1052  and  C5'_1053 
REMARK       I    between atoms: C5'_1053  and  C4'_1054 
REMARK       I    between atoms: C1'_1056  and  N9_1057 
REMARK       I    between atoms: C2_1060  and  N2_1061 
REMARK       I    between atoms: C2'_1071  and  O2'_1072 
REMARK       I    between atoms: C3'_1074  and  O3'_1075 
REMARK       I    between atoms: O3'_1075  and  P_1076 
REMARK       I    between atoms: P_1076  and  O5'_1079 
REMARK       I    between atoms: O5'_1079  and  C5'_1080 
REMARK       I    between atoms: C5'_1080  and  C4'_1081 
REMARK       I    between atoms: C1'_1083  and  N9_1084 
REMARK       I    between atoms: C6_1089  and  N6_1090 
REMARK       I    between atoms: C2'_1096  and  O2'_1097 
REMARK       I    between atoms: C3'_1099  and  O3'_1100 
REMARK       I    between atoms: O3'_1100  and  P_1101 
REMARK       I    between atoms: P_1101  and  O5'_1104 
REMARK       I    between atoms: O5'_1104  and  C5'_1105 
REMARK       I    between atoms: C5'_1105  and  C4'_1106 
REMARK       I    between atoms: C1'_1108  and  N9_1109 
REMARK       I    between atoms: C2_1112  and  N2_1113 
REMARK       I    between atoms: C2'_1123  and  O2'_1124 
REMARK       I    between atoms: C3'_1126  and  O3'_1127 
REMARK       I    between atoms: O3'_1127  and  P_1128 
REMARK       I    between atoms: P_1128  and  O5'_1131 
REMARK       I    between atoms: O5'_1131  and  C5'_1132 
REMARK       I    between atoms: C5'_1132  and  C4'_1133 
REMARK       I    between atoms: C1'_1135  and  N9_1136 
REMARK       I    between atoms: C2_1139  and  N2_1140 
REMARK       I    between atoms: C2'_1150  and  O2'_1151 
REMARK       I    between atoms: C3'_1153  and  O3'_1154 
REMARK       I    between atoms: O3'_1154  and  P_1155 
REMARK       I    between atoms: P_1155  and  O5'_1158 
REMARK       I    between atoms: O5'_1158  and  C5'_1159 
REMARK       I    between atoms: C5'_1159  and  C4'_1160 
REMARK       I    between atoms: C1'_1162  and  N1_1163 
REMARK       I    between atoms: C2'_1172  and  O2'_1173 
REMARK       I    between atoms: C3'_1175  and  O3'_1176 
REMARK       I    between atoms: O3'_1176  and  P_1177 
REMARK       I    between atoms: P_1177  and  O5'_1180 
REMARK       I    between atoms: O5'_1180  and  C5'_1181 
REMARK       I    between atoms: C5'_1181  and  C4'_1182 
REMARK       I    between atoms: C1'_1184  and  N1_1185 
REMARK       I    between atoms: C4_1190  and  N4_1191 
REMARK       I    between atoms: C2'_1195  and  O2'_1196 
REMARK       I    between atoms: C3'_1198  and  O3'_1199 
REMARK       I    between atoms: O3'_1199  and  P_1200 
REMARK       I    between atoms: P_1200  and  O5'_1203 
REMARK       I    between atoms: O5'_1203  and  C5'_1204 
REMARK       I    between atoms: C5'_1204  and  C4'_1205 
REMARK       I    between atoms: C1'_1207  and  N1_1208 
REMARK       I    between atoms: C4_1213  and  N4_1214 
REMARK       I    between atoms: C2'_1218  and  O2'_1219 
REMARK       I    between atoms: C3'_1221  and  O3'_1222 
REMARK       I    between atoms: O3'_1222  and  P_1223 
REMARK       I    between atoms: P_1223  and  O5'_1226 
REMARK       I    between atoms: O5'_1226  and  C5'_1227 
REMARK       I    between atoms: C5'_1227  and  C4'_1228 
REMARK       I    between atoms: C1'_1230  and  N1_1231 
REMARK       I    between atoms: C4_1236  and  N4_1237 
REMARK       I    between atoms: C2'_1241  and  O2'_1242 
REMARK       I    between atoms: C3'_1244  and  O3'_1245 
REMARK       I    between atoms: O3'_1245  and  P_1246 
REMARK       I    between atoms: P_1246  and  O5'_1249 
REMARK       I    between atoms: O5'_1249  and  C5'_1250 
REMARK       I    between atoms: C5'_1250  and  C4'_1251 
REMARK       I    between atoms: C1'_1253  and  N9_1254 
REMARK       I    between atoms: C6_1259  and  N6_1260 
REMARK       I    between atoms: C2'_1266  and  O2'_1267 
REMARK       I    between atoms: C3'_1269  and  O3'_1270 
REMARK       I    between atoms: O3'_1270  and  P_1271 
REMARK       I    between atoms: P_1271  and  O5'_1274 
REMARK       I    between atoms: O5'_1274  and  C5'_1275 
REMARK       I    between atoms: C5'_1275  and  C4'_1276 
REMARK       I    between atoms: C1'_1278  and  N9_1279 
REMARK       I    between atoms: C2_1282  and  N2_1283 
REMARK       I    between atoms: C2'_1293  and  O2'_1294 
REMARK       I    between atoms: C3'_1296  and  O3'_1297 
REMARK       I    between atoms: O3'_1297  and  P_1298 
REMARK       I    between atoms: P_1298  and  O5'_1301 
REMARK       I    between atoms: O5'_1301  and  C5'_1302 
REMARK       I    between atoms: C5'_1302  and  C4'_1303 
REMARK       I    between atoms: C1'_1305  and  N9_1306 
REMARK       I    between atoms: C6_1311  and  N6_1312 
REMARK       I    between atoms: C2'_1318  and  O2'_1319 
REMARK       I    between atoms: C3'_1321  and  O3'_1322 
REMARK       I    between atoms: O3'_1322  and  P_1323 
REMARK       I    between atoms: P_1323  and  O5'_1326 
REMARK       I    between atoms: O5'_1326  and  C5'_1327 
REMARK       I    between atoms: C5'_1327  and  C4'_1328 
REMARK       I    between atoms: C1'_1330  and  N1_1331 
REMARK       I    between atoms: C2'_1340  and  O2'_1341 
REMARK       I    between atoms: C3'_1343  and  O3'_1344 
REMARK       I    between atoms: O3'_1344  and  P_1345 
REMARK       I    between atoms: P_1345  and  O5'_1348 
REMARK       I    between atoms: O5'_1348  and  C5'_1349 
REMARK       I    between atoms: C5'_1349  and  C4'_1350 
REMARK       I    between atoms: C1'_1352  and  N1_1353 
REMARK       I    between atoms: C2'_1362  and  O2'_1363 
REMARK       I    between atoms: C3'_1365  and  O3'_1366 
REMARK       I    between atoms: O3'_1366  and  P_1367 
REMARK       I    between atoms: P_1367  and  O5'_1370 
REMARK       I    between atoms: O5'_1370  and  C5'_1371 
REMARK       I    between atoms: C5'_1371  and  C4'_1372 
REMARK       I    between atoms: C1'_1374  and  N1_1375 
REMARK       I    between atoms: C4_1380  and  N4_1381 
REMARK       I    between atoms: C2'_1385  and  O2'_1386 
REMARK       I    between atoms: C3'_1388  and  O3'_1389 
REMARK       I    between atoms: O3'_1389  and  P_1390 
REMARK       I    between atoms: P_1390  and  O5'_1393 
REMARK       I    between atoms: O5'_1393  and  C5'_1394 
REMARK       I    between atoms: C5'_1394  and  C4'_1395 
REMARK       I    between atoms: C1'_1397  and  N9_1398 
REMARK       I    between atoms: C2_1401  and  N2_1402 
REMARK       I    between atoms: C2'_1412  and  O2'_1413 
REMARK       I    between atoms: C3'_1415  and  O3'_1416 
REMARK       I    between atoms: O3'_1416  and  P_1417 
REMARK       I    between atoms: P_1417  and  O5'_1420 
REMARK       I    between atoms: O5'_1420  and  C5'_1421 
REMARK       I    between atoms: C5'_1421  and  C4'_1422 
REMARK       I    between atoms: C1'_1424  and  N9_1425 
REMARK       I    between atoms: C6_1430  and  N6_1431 
REMARK       I    between atoms: C2'_1437  and  O2'_1438 
REMARK       I    between atoms: C3'_1440  and  O3'_1441 
REMARK       I    between atoms: O3'_1441  and  P_1442 
REMARK       I    between atoms: P_1442  and  O5'_1445 
REMARK       I    between atoms: O5'_1445  and  C5'_1446 
REMARK       I    between atoms: C5'_1446  and  C4'_1447 
REMARK       I    between atoms: C1'_1449  and  N9_1450 
REMARK       I    between atoms: C2_1453  and  N2_1454 
REMARK       I    between atoms: C2'_1464  and  O2'_1465 
REMARK       I    between atoms: C3'_1467  and  O3'_1468 
REMARK       I    between atoms: O3'_1468  and  P_1469 
REMARK       I    between atoms: P_1469  and  O5'_1472 
REMARK       I    between atoms: O5'_1472  and  C5'_1473 
REMARK       I    between atoms: C5'_1473  and  C4'_1474 
REMARK       I    between atoms: C1'_1476  and  N1_1477 
REMARK       I    between atoms: C2'_1486  and  O2'_1487 
REMARK       I    between atoms: C3'_1489  and  O3'_1490 
REMARK       I    between atoms: O3'_1490  and  P_1491 
REMARK       I    between atoms: P_1491  and  O5'_1494 
REMARK       I    between atoms: O5'_1494  and  C5'_1495 
REMARK       I    between atoms: C5'_1495  and  C4'_1496 
REMARK       I    between atoms: C1'_1498  and  N1_1499 
REMARK       I    between atoms: C2'_1508  and  O2'_1509 
REMARK       I    between atoms: C3'_1511  and  O3'_1512 
REMARK       I    between atoms: O3'_1512  and  P_1513 
REMARK       I    between atoms: P_1513  and  O5'_1516 
REMARK       I    between atoms: O5'_1516  and  C5'_1517 
REMARK       I    between atoms: C5'_1517  and  C4'_1518 
REMARK       I    between atoms: C1'_1520  and  N1_1521 
REMARK       I    between atoms: C4_1526  and  N4_1527 
REMARK       I    between atoms: C2'_1531  and  O2'_1532 
REMARK       I    between atoms: C3'_1534  and  O3'_1535 
REMARK       I    between atoms: O3'_1535  and  P_1536 
REMARK       I    between atoms: P_1536  and  O5'_1539 
REMARK       I    between atoms: O5'_1539  and  C5'_1540 
REMARK       I    between atoms: C5'_1540  and  C4'_1541 
REMARK       I    between atoms: C1'_1543  and  N1_1544 
REMARK       I    between atoms: C2'_1553  and  O2'_1554 
REMARK       I    between atoms: C3'_1556  and  O3'_1557 
REMARK       I    between atoms: O3'_1557  and  P_1558 
REMARK       I    between atoms: P_1558  and  O5'_1561 
REMARK       I    between atoms: O5'_1561  and  C5'_1562 
REMARK       I    between atoms: C5'_1562  and  C4'_1563 
REMARK       I    between atoms: C1'_1565  and  N9_1566 
REMARK       I    between atoms: C2_1569  and  N2_1570 
REMARK       I    between atoms: C2'_1580  and  O2'_1581 
REMARK       I    between atoms: C3'_1583  and  O3'_1584 
REMARK       I    between atoms: O3'_1584  and  P_1585 
REMARK       I    between atoms: P_1585  and  O5'_1588 
REMARK       I    between atoms: O5'_1588  and  C5'_1589 
REMARK       I    between atoms: C5'_1589  and  C4'_1590 
REMARK       I    between atoms: C1'_1592  and  N9_1593 
REMARK       I    between atoms: C2_1596  and  N2_1597 
REMARK       I    between atoms: C2'_1607  and  O2'_1608 
REMARK       I    between atoms: C3'_1610  and  O3'_1611 
REMARK       I    between atoms: O3'_1611  and  P_1612 
REMARK       I    between atoms: P_1612  and  O5'_1615 
REMARK       I    between atoms: O5'_1615  and  C5'_1616 
REMARK       I    between atoms: C5'_1616  and  C4'_1617 
REMARK       I    between atoms: C1'_1619  and  N1_1620 
REMARK       I    between atoms: C4_1625  and  N4_1626 
REMARK       I    between atoms: C2'_1630  and  O2'_1631 
REMARK       I    between atoms: C3'_1633  and  O3'_1634 
REMARK       I    between atoms: O3'_1634  and  P_1635 
REMARK       I    between atoms: P_1635  and  O5'_1638 
REMARK       I    between atoms: O5'_1638  and  C5'_1639 
REMARK       I    between atoms: C5'_1639  and  C4'_1640 
REMARK       I    between atoms: C1'_1642  and  N1_1643 
REMARK       I    between atoms: C2'_1652  and  O2'_1653 
REMARK       I    between atoms: C3'_1655  and  O3'_1656 
REMARK       I    between atoms: O3'_1656  and  P_1657 
REMARK       I    between atoms: P_1657  and  O5'_1660 
REMARK       I    between atoms: O5'_1660  and  C5'_1661 
REMARK       I    between atoms: C5'_1661  and  C4'_1662 
REMARK       I    between atoms: C1'_1664  and  N1_1665 
REMARK       I    between atoms: C2'_1674  and  O2'_1675 
REMARK       I    between atoms: C3'_1677  and  O3'_1678 
REMARK       I    between atoms: O3'_1678  and  P_1679 
REMARK       I    between atoms: P_1679  and  O5'_1682 
REMARK       I    between atoms: O5'_1682  and  C5'_1683 
REMARK       I    between atoms: C5'_1683  and  C4'_1684 
REMARK       I    between atoms: C1'_1686  and  N9_1687 
REMARK       I    between atoms: C2_1690  and  N2_1691 
REMARK       I    between atoms: C2'_1701  and  O2'_1702 
REMARK       I    between atoms: C3'_1704  and  O3'_1705 
REMARK       I    between atoms: O3'_1705  and  P_1706 
REMARK       I    between atoms: P_1706  and  O5'_1709 
REMARK       I    between atoms: O5'_1709  and  C5'_1710 
REMARK       I    between atoms: C5'_1710  and  C4'_1711 
REMARK       I    between atoms: C1'_1713  and  N1_1714 
REMARK       I    between atoms: C2'_1723  and  O2'_1724 
REMARK       I    between atoms: C3'_1726  and  O3'_1727 
REMARK       I    between atoms: O3'_1727  and  P_1728 
REMARK       I    between atoms: P_1728  and  O5'_1731 
REMARK       I    between atoms: O5'_1731  and  C5'_1732 
REMARK       I    between atoms: C5'_1732  and  C4'_1733 
REMARK       I    between atoms: C1'_1735  and  N1_1736 
REMARK       I    between atoms: C4_1741  and  N4_1742 
REMARK       I    between atoms: C2'_1746  and  O2'_1747 
REMARK       I    between atoms: C3'_1749  and  O3'_1750 
REMARK       I    between atoms: O3'_1750  and  P_1751 
REMARK       I    between atoms: P_1751  and  O5'_1754 
REMARK       I    between atoms: O5'_1754  and  C5'_1755 
REMARK       I    between atoms: C5'_1755  and  C4'_1756 
REMARK       I    between atoms: C1'_1758  and  N1_1759 
REMARK       I    between atoms: C4_1764  and  N4_1765 
REMARK       I    between atoms: C2'_1769  and  O2'_1770 
REMARK       I    between atoms: C3'_1772  and  O3'_1773 
REMARK       I    between atoms: O3'_1773  and  P_1774 
REMARK       I    between atoms: P_1774  and  O5'_1777 
REMARK       I    between atoms: O5'_1777  and  C5'_1778 
REMARK       I    between atoms: C5'_1778  and  C4'_1779 
REMARK       I    between atoms: C1'_1781  and  N9_1782 
REMARK       I    between atoms: C6_1787  and  N6_1788 
REMARK       I    between atoms: C2'_1794  and  O2'_1795 
REMARK       I    between atoms: C3'_1797  and  O3'_1798 
REMARK       I    between atoms: O3'_1798  and  P_1799 
REMARK       I    between atoms: P_1799  and  O5'_1802 
REMARK       I    between atoms: O5'_1802  and  C5'_1803 
REMARK       I    between atoms: C5'_1803  and  C4'_1804 
REMARK       I    between atoms: C1'_1806  and  N9_1807 
REMARK       I    between atoms: C6_1812  and  N6_1813 
REMARK       I    between atoms: C2'_1819  and  O2'_1820 
REMARK       I    between atoms: C3'_1822  and  O3'_1823 
ROOT
ATOM      1 'HO5   G A   1     -22.213   3.573   5.397  1.00  0.00     0.209 HD
ATOM      2  O5'   G A   1     -22.197   4.501   5.150  1.00  0.00    -0.398 OA
ATOM      3  C5'   G A   1     -20.827   4.905   5.122  1.00  0.00     0.198 C 
ATOM      4  C4'   G A   1     -20.363   5.136   3.703  1.00  0.00     0.180 C 
ATOM      5  O4'   G A   1     -19.218   6.030   3.743  1.00  0.00    -0.353 OA
ATOM      6  C1'   G A   1     -18.180   5.525   2.929  1.00  0.00     0.262 C 
ATOM      7  N9    G A   1     -17.079   5.112   3.793  1.00  0.00    -0.293 N 
ATOM      8  C4    G A   1     -16.068   4.241   3.470  1.00  0.00     0.187 A 
ATOM      9  N3    G A   1     -15.917   3.605   2.289  1.00  0.00    -0.044 NA
ATOM     10  C2    G A   1     -14.848   2.832   2.278  1.00  0.00     0.703 A 
ATOM     11  N2    G A   1     -14.556   2.125   1.183  1.00  0.00    -0.233 N 
ATOM     12  H21   G A   1     -15.163   2.197   0.379  1.00  0.00     0.174 HD
ATOM     13  H22   G A   1     -13.750   1.517   1.158  1.00  0.00     0.174 HD
ATOM     14  N1    G A   1     -13.989   2.693   3.339  1.00  0.00    -0.153 N 
ATOM     15  H1    G A   1     -13.198   2.078   3.228  1.00  0.00     0.187 HD
ATOM     16  C6    G A   1     -14.121   3.338   4.564  1.00  0.00     0.292 A 
ATOM     17  O6    G A   1     -13.286   3.141   5.454  1.00  0.00    -0.265 OA
ATOM     18  C5    G A   1     -15.270   4.172   4.592  1.00  0.00     0.173 A 
ATOM     19  N7    G A   1     -15.771   4.981   5.603  1.00  0.00    -0.234 NA
ATOM     20  C8    G A   1     -16.843   5.515   5.084  1.00  0.00     0.214 A 
ATOM     21  C2'   G A   1     -18.762   4.398   2.077  1.00  0.00     0.199 C 
ATOM     22  O2'   G A   1     -19.273   4.950   0.879  1.00  0.00    -0.388 OA
ATOM     23 'HO2   G A   1     -20.156   4.593   0.772  1.00  0.00     0.210 HD
ATOM     24  C3'   G A   1     -19.894   3.887   2.964  1.00  0.00     0.198 C 
ATOM     25  O3'   G A   1     -20.950   3.320   2.188  1.00  0.00    -0.279 OA
ATOM     26  P     G A   2     -21.692   1.984   2.693  1.00  0.00     0.408 P 
ATOM     27  OP1   G A   2     -22.989   1.912   1.974  1.00  0.00    -0.624 OA
ATOM     28  OP2   G A   2     -21.674   1.969   4.179  1.00  0.00    -0.624 OA
ATOM     29  O5'   G A   2     -20.763   0.803   2.164  1.00  0.00    -0.287 OA
ATOM     30  C5'   G A   2     -19.389   0.728   2.535  1.00  0.00     0.216 C 
ATOM     31  C4'   G A   2     -18.863  -0.672   2.322  1.00  0.00     0.180 C 
ATOM     32  O4'   G A   2     -17.414  -0.597   2.244  1.00  0.00    -0.353 OA
ATOM     33  C1'   G A   2     -16.855  -1.261   3.351  1.00  0.00     0.262 C 
ATOM     34  N9    G A   2     -16.620  -0.282   4.408  1.00  0.00    -0.293 N 
ATOM     35  C4    G A   2     -16.165  -0.544   5.678  1.00  0.00     0.187 A 
ATOM     36  N3    G A   2     -15.831  -1.755   6.166  1.00  0.00    -0.044 NA
ATOM     37  C2    G A   2     -15.440  -1.688   7.425  1.00  0.00     0.703 A 
ATOM     38  N2    G A   2     -15.073  -2.804   8.063  1.00  0.00    -0.233 N 
ATOM     39  H21   G A   2     -15.104  -3.681   7.565  1.00  0.00     0.174 HD
ATOM     40  H22   G A   2     -14.768  -2.765   9.024  1.00  0.00     0.174 HD
ATOM     41  N1    G A   2     -15.378  -0.526   8.149  1.00  0.00    -0.153 N 
ATOM     42  H1    G A   2     -15.073  -0.578   9.110  1.00  0.00     0.187 HD
ATOM     43  C6    G A   2     -15.705   0.734   7.662  1.00  0.00     0.292 A 
ATOM     44  O6    G A   2     -15.597   1.723   8.393  1.00  0.00    -0.265 OA
ATOM     45  C5    G A   2     -16.135   0.677   6.314  1.00  0.00     0.173 A 
ATOM     46  N7    G A   2     -16.551   1.689   5.460  1.00  0.00    -0.234 NA
ATOM     47  C8    G A   2     -16.821   1.074   4.343  1.00  0.00     0.214 A 
ATOM     48  C2'   G A   2     -17.849  -2.354   3.724  1.00  0.00     0.199 C 
ATOM     49  O2'   G A   2     -17.657  -3.457   2.859  1.00  0.00    -0.388 OA
ATOM     50 'HO2   G A   2     -18.521  -3.688   2.515  1.00  0.00     0.210 HD
ATOM     51  C3'   G A   2     -19.182  -1.659   3.449  1.00  0.00     0.198 C 
ATOM     52  O3'   G A   2     -20.187  -2.586   3.048  1.00  0.00    -0.279 OA
ATOM     53  P     G A   3     -21.670  -2.480   3.665  1.00  0.00     0.408 P 
ATOM     54  OP1   G A   3     -22.443  -3.636   3.144  1.00  0.00    -0.624 OA
ATOM     55  OP2   G A   3     -22.179  -1.102   3.445  1.00  0.00    -0.624 OA
ATOM     56  O5'   G A   3     -21.455  -2.686   5.231  1.00  0.00    -0.287 OA
ATOM     57  C5'   G A   3     -22.251  -3.615   5.969  1.00  0.00     0.216 C 
ATOM     58  C4'   G A   3     -21.598  -4.979   5.969  1.00  0.00     0.180 C 
ATOM     59  O4'   G A   3     -20.155  -4.806   5.983  1.00  0.00    -0.353 OA
ATOM     60  C1'   G A   3     -19.573  -5.682   6.930  1.00  0.00     0.262 C 
ATOM     61  N9    G A   3     -19.039  -4.884   8.028  1.00  0.00    -0.293 N 
ATOM     62  C4    G A   3     -18.073  -5.272   8.927  1.00  0.00     0.187 A 
ATOM     63  N3    G A   3     -17.447  -6.466   8.951  1.00  0.00    -0.044 NA
ATOM     64  C2    G A   3     -16.566  -6.542   9.933  1.00  0.00     0.703 A 
ATOM     65  N2    G A   3     -15.857  -7.661  10.101  1.00  0.00    -0.233 N 
ATOM     66  H21   G A   3     -16.009  -8.434   9.470  1.00  0.00     0.174 HD
ATOM     67  H22   G A   3     -15.185  -7.735  10.849  1.00  0.00     0.174 HD
ATOM     68  N1    G A   3     -16.317  -5.527  10.820  1.00  0.00    -0.153 N 
ATOM     69  H1    G A   3     -15.623  -5.689  11.533  1.00  0.00     0.187 HD
ATOM     70  C6    G A   3     -16.949  -4.289  10.817  1.00  0.00     0.292 A 
ATOM     71  O6    G A   3     -16.650  -3.443  11.665  1.00  0.00    -0.265 OA
ATOM     72  C5    G A   3     -17.899  -4.193   9.767  1.00  0.00     0.173 A 
ATOM     73  N7    G A   3     -18.739  -3.147   9.407  1.00  0.00    -0.234 NA
ATOM     74  C8    G A   3     -19.393  -3.602   8.373  1.00  0.00     0.214 A 
ATOM     75  C2'   G A   3     -20.651  -6.677   7.357  1.00  0.00     0.199 C 
ATOM     76  O2'   G A   3     -20.634  -7.778   6.466  1.00  0.00    -0.388 OA
ATOM     77 'HO2   G A   3     -21.424  -7.718   5.928  1.00  0.00     0.210 HD
ATOM     78  C3'   G A   3     -21.914  -5.839   7.186  1.00  0.00     0.198 C 
ATOM     79  O3'   G A   3     -23.066  -6.646   6.967  1.00  0.00    -0.279 OA
ATOM     80  P     C A   4     -23.817  -7.321   8.219  1.00  0.00     0.408 P 
ATOM     81  OP1   C A   4     -23.734  -8.794   8.046  1.00  0.00    -0.624 OA
ATOM     82  OP2   C A   4     -25.144  -6.671   8.355  1.00  0.00    -0.624 OA
ATOM     83  O5'   C A   4     -22.929  -6.898   9.473  1.00  0.00    -0.287 OA
ATOM     84  C5'   C A   4     -22.692  -7.801  10.553  1.00  0.00     0.216 C 
ATOM     85  C4'   C A   4     -23.077  -7.155  11.864  1.00  0.00     0.180 C 
ATOM     86  O4'   C A   4     -22.496  -5.826  11.930  1.00  0.00    -0.353 OA
ATOM     87  C1'   C A   4     -23.365  -4.964  12.643  1.00  0.00     0.264 C 
ATOM     88  N1    C A   4     -23.690  -3.815  11.782  1.00  0.00    -0.278 N 
ATOM     89  C6    C A   4     -23.912  -3.984  10.443  1.00  0.00     0.102 A 
ATOM     90  C2    C A   4     -23.776  -2.543  12.355  1.00  0.00     0.352 A 
ATOM     91  O2    C A   4     -23.566  -2.415  13.571  1.00  0.00    -0.244 OA
ATOM     92  N3    C A   4     -24.085  -1.484  11.574  1.00  0.00    -0.177 NA
ATOM     93  C4    C A   4     -24.304  -1.660  10.270  1.00  0.00     0.128 A 
ATOM     94  N4    C A   4     -24.608  -0.586   9.542  1.00  0.00    -0.384 N 
ATOM     95  H41   C A   4     -24.781  -0.676   8.552  1.00  0.00     0.157 HD
ATOM     96  H42   C A   4     -24.657   0.320   9.986  1.00  0.00     0.157 HD
ATOM     97  C5    C A   4     -24.220  -2.944   9.657  1.00  0.00     0.067 A 
ATOM     98  C2'   C A   4     -24.594  -5.772  13.066  1.00  0.00     0.199 C 
ATOM     99  O2'   C A   4     -24.397  -6.243  14.385  1.00  0.00    -0.388 OA
ATOM    100 'HO2   C A   4     -25.120  -6.842  14.574  1.00  0.00     0.210 HD
ATOM    101  C3'   C A   4     -24.567  -6.920  12.062  1.00  0.00     0.198 C 
ATOM    102  O3'   C A   4     -25.217  -8.090  12.552  1.00  0.00    -0.279 OA
ATOM    103  P     A A   5     -26.590  -8.589  11.876  1.00  0.00     0.408 P 
ATOM    104  OP1   A A   5     -26.645 -10.065  12.037  1.00  0.00    -0.624 OA
ATOM    105  OP2   A A   5     -26.702  -7.996  10.519  1.00  0.00    -0.624 OA
ATOM    106  O5'   A A   5     -27.727  -7.948  12.791  1.00  0.00    -0.287 OA
ATOM    107  C5'   A A   5     -28.022  -8.479  14.083  1.00  0.00     0.216 C 
ATOM    108  C4'   A A   5     -28.605  -7.405  14.970  1.00  0.00     0.180 C 
ATOM    109  O4'   A A   5     -27.758  -6.224  14.898  1.00  0.00    -0.353 OA
ATOM    110  C1'   A A   5     -28.562  -5.057  14.882  1.00  0.00     0.262 C 
ATOM    111  N9    A A   5     -28.355  -4.375  13.604  1.00  0.00    -0.294 N 
ATOM    112  C4    A A   5     -28.469  -3.025  13.375  1.00  0.00     0.167 A 
ATOM    113  N3    A A   5     -28.791  -2.072  14.265  1.00  0.00    -0.222 NA
ATOM    114  C2    A A   5     -28.804  -0.874  13.685  1.00  0.00     0.237 A 
ATOM    115  N1    A A   5     -28.551  -0.546  12.411  1.00  0.00    -0.222 NA
ATOM    116  C6    A A   5     -28.231  -1.528  11.542  1.00  0.00     0.155 A 
ATOM    117  N6    A A   5     -27.983  -1.199  10.274  1.00  0.00    -0.382 N 
ATOM    118  H61   A A   5     -27.744  -1.918   9.606  1.00  0.00     0.157 HD
ATOM    119  H62   A A   5     -28.034  -0.232   9.986  1.00  0.00     0.157 HD
ATOM    120  C5    A A   5     -28.183  -2.846  12.033  1.00  0.00     0.149 A 
ATOM    121  N7    A A   5     -27.894  -4.060  11.427  1.00  0.00    -0.236 NA
ATOM    122  C8    A A   5     -28.010  -4.933  12.398  1.00  0.00     0.214 A 
ATOM    123  C2'   A A   5     -30.008  -5.489  15.123  1.00  0.00     0.199 C 
ATOM    124  O2'   A A   5     -30.257  -5.481  16.516  1.00  0.00    -0.388 OA
ATOM    125 'HO2   A A   5     -30.836  -6.220  16.703  1.00  0.00     0.210 HD
ATOM    126  C3'   A A   5     -29.990  -6.911  14.574  1.00  0.00     0.198 C 
ATOM    127  O3'   A A   5     -31.017  -7.723  15.140  1.00  0.00    -0.279 OA
ATOM    128  P     U A   6     -32.446  -7.832  14.408  1.00  0.00     0.408 P 
ATOM    129  OP1   U A   6     -33.231  -8.873  15.119  1.00  0.00    -0.624 OA
ATOM    130  OP2   U A   6     -32.218  -7.955  12.946  1.00  0.00    -0.624 OA
ATOM    131  O5'   U A   6     -33.130  -6.419  14.684  1.00  0.00    -0.287 OA
ATOM    132  C5'   U A   6     -33.649  -6.090  15.971  1.00  0.00     0.216 C 
ATOM    133  C4'   U A   6     -34.497  -4.842  15.888  1.00  0.00     0.180 C 
ATOM    134  O4'   U A   6     -33.630  -3.699  15.653  1.00  0.00    -0.353 OA
ATOM    135  C1'   U A   6     -34.240  -2.817  14.727  1.00  0.00     0.264 C 
ATOM    136  N1    U A   6     -33.423  -2.789  13.505  1.00  0.00    -0.280 N 
ATOM    137  C6    U A   6     -32.774  -3.917  13.054  1.00  0.00     0.104 A 
ATOM    138  C2    U A   6     -33.330  -1.592  12.820  1.00  0.00     0.331 A 
ATOM    139  O2    U A   6     -33.888  -0.572  13.184  1.00  0.00    -0.246 OA
ATOM    140  N3    U A   6     -32.556  -1.630  11.689  1.00  0.00    -0.275 N 
ATOM    141  H3    U A   6     -32.475  -0.770  11.171  1.00  0.00     0.173 HD
ATOM    142  C4    U A   6     -31.880  -2.717  11.184  1.00  0.00     0.250 A 
ATOM    143  O4    U A   6     -31.212  -2.588  10.159  1.00  0.00    -0.268 OA
ATOM    144  C5    U A   6     -32.027  -3.915  11.946  1.00  0.00     0.092 A 
ATOM    145  C2'   U A   6     -35.666  -3.314  14.496  1.00  0.00     0.199 C 
ATOM    146  O2'   U A   6     -36.515  -2.720  15.462  1.00  0.00    -0.388 OA
ATOM    147 'HO2   U A   6     -37.336  -2.512  15.013  1.00  0.00     0.210 HD
ATOM    148  C3'   U A   6     -35.499  -4.807  14.742  1.00  0.00     0.198 C 
ATOM    149  O3'   U A   6     -36.725  -5.443  15.093  1.00  0.00    -0.279 OA
ATOM    150  P     G A   7     -37.639  -6.102  13.946  1.00  0.00     0.408 P 
ATOM    151  OP1   G A   7     -38.862  -6.632  14.601  1.00  0.00    -0.624 OA
ATOM    152  OP2   G A   7     -36.787  -7.013  13.138  1.00  0.00    -0.624 OA
ATOM    153  O5'   G A   7     -38.059  -4.868  13.027  1.00  0.00    -0.287 OA
ATOM    154  C5'   G A   7     -39.238  -4.112  13.303  1.00  0.00     0.216 C 
ATOM    155  C4'   G A   7     -39.126  -2.728  12.703  1.00  0.00     0.180 C 
ATOM    156  O4'   G A   7     -37.732  -2.323  12.704  1.00  0.00    -0.353 OA
ATOM    157  C1'   G A   7     -37.443  -1.594  11.525  1.00  0.00     0.262 C 
ATOM    158  N9    G A   7     -36.407  -2.308  10.785  1.00  0.00    -0.293 N 
ATOM    159  C4    G A   7     -35.661  -1.814   9.742  1.00  0.00     0.187 A 
ATOM    160  N3    G A   7     -35.758  -0.575   9.215  1.00  0.00    -0.044 NA
ATOM    161  C2    G A   7     -34.908  -0.395   8.221  1.00  0.00     0.703 A 
ATOM    162  N2    G A   7     -34.873   0.779   7.585  1.00  0.00    -0.233 N 
ATOM    163  H21   G A   7     -35.500   1.516   7.877  1.00  0.00     0.174 HD
ATOM    164  H22   G A   7     -34.231   0.931   6.821  1.00  0.00     0.174 HD
ATOM    165  N1    G A   7     -34.031  -1.351   7.776  1.00  0.00    -0.153 N 
ATOM    166  H1    G A   7     -33.424  -1.116   7.008  1.00  0.00     0.187 HD
ATOM    167  C6    G A   7     -33.912  -2.632   8.304  1.00  0.00     0.292 A 
ATOM    168  O6    G A   7     -33.085  -3.416   7.827  1.00  0.00    -0.265 OA
ATOM    169  C5    G A   7     -34.820  -2.843   9.374  1.00  0.00     0.173 A 
ATOM    170  N7    G A   7     -35.033  -3.961  10.169  1.00  0.00    -0.234 NA
ATOM    171  C8    G A   7     -35.981  -3.598  10.988  1.00  0.00     0.214 A 
ATOM    172  C2'   G A   7     -38.749  -1.424  10.746  1.00  0.00     0.199 C 
ATOM    173  O2'   G A   7     -39.347  -0.199  11.127  1.00  0.00    -0.388 OA
ATOM    174 'HO2   G A   7     -40.205  -0.413  11.491  1.00  0.00     0.210 HD
ATOM    175  C3'   G A   7     -39.562  -2.612  11.249  1.00  0.00     0.198 C 
ATOM    176  O3'   G A   7     -40.967  -2.393  11.151  1.00  0.00    -0.279 OA
ATOM    177  P     U A   8     -41.752  -2.802   9.808  1.00  0.00     0.408 P 
ATOM    178  OP1   U A   8     -43.197  -2.564  10.053  1.00  0.00    -0.624 OA
ATOM    179  OP2   U A   8     -41.293  -4.149   9.383  1.00  0.00    -0.624 OA
ATOM    180  O5'   U A   8     -41.249  -1.743   8.730  1.00  0.00    -0.287 OA
ATOM    181  C5'   U A   8     -41.488  -0.347   8.903  1.00  0.00     0.216 C 
ATOM    182  C4'   U A   8     -41.434   0.361   7.569  1.00  0.00     0.180 C 
ATOM    183  O4'   U A   8     -40.077   0.831   7.347  1.00  0.00    -0.353 OA
ATOM    184  C1'   U A   8     -39.706   0.611   5.998  1.00  0.00     0.264 C 
ATOM    185  N1    U A   8     -38.619  -0.378   5.974  1.00  0.00    -0.280 N 
ATOM    186  C6    U A   8     -38.550  -1.385   6.909  1.00  0.00     0.104 A 
ATOM    187  C2    U A   8     -37.664  -0.263   4.980  1.00  0.00     0.331 A 
ATOM    188  O2    U A   8     -37.687   0.614   4.136  1.00  0.00    -0.246 OA
ATOM    189  N3    U A   8     -36.678  -1.216   5.011  1.00  0.00    -0.275 N 
ATOM    190  H3    U A   8     -35.971  -1.151   4.293  1.00  0.00     0.173 HD
ATOM    191  C4    U A   8     -36.550  -2.247   5.913  1.00  0.00     0.250 A 
ATOM    192  O4    U A   8     -35.608  -3.029   5.805  1.00  0.00    -0.268 OA
ATOM    193  C5    U A   8     -37.573  -2.295   6.910  1.00  0.00     0.092 A 
ATOM    194  C2'   U A   8     -40.960   0.168   5.244  1.00  0.00     0.199 C 
ATOM    195  O2'   U A   8     -41.631   1.318   4.764  1.00  0.00    -0.388 OA
ATOM    196 'HO2   U A   8     -42.548   1.232   5.027  1.00  0.00     0.210 HD
ATOM    197  C3'   U A   8     -41.753  -0.506   6.358  1.00  0.00     0.198 C 
ATOM    198  O3'   U A   8     -43.152  -0.531   6.086  1.00  0.00    -0.279 OA
ATOM    199  P     G A   9     -43.895  -1.938   5.846  1.00  0.00     0.408 P 
ATOM    200  OP1   G A   9     -44.631  -2.267   7.092  1.00  0.00    -0.624 OA
ATOM    201  OP2   G A   9     -42.908  -2.905   5.299  1.00  0.00    -0.624 OA
ATOM    202  O5'   G A   9     -44.967  -1.625   4.708  1.00  0.00    -0.287 OA
ATOM    203  C5'   G A   9     -45.023  -0.345   4.077  1.00  0.00     0.216 C 
ATOM    204  C4'   G A   9     -45.214  -0.508   2.587  1.00  0.00     0.180 C 
ATOM    205  O4'   G A   9     -45.376   0.814   1.999  1.00  0.00    -0.353 OA
ATOM    206  C1'   G A   9     -44.380   1.024   1.021  1.00  0.00     0.262 C 
ATOM    207  N9    G A   9     -43.979   2.428   1.065  1.00  0.00    -0.293 N 
ATOM    208  C4    G A   9     -44.814   3.517   1.090  1.00  0.00     0.187 A 
ATOM    209  N3    G A   9     -46.164   3.484   1.080  1.00  0.00    -0.044 NA
ATOM    210  C2    G A   9     -46.688   4.695   1.110  1.00  0.00     0.703 A 
ATOM    211  N2    G A   9     -48.014   4.843   1.106  1.00  0.00    -0.233 N 
ATOM    212  H21   G A   9     -48.598   4.019   1.079  1.00  0.00     0.174 HD
ATOM    213  H22   G A   9     -48.430   5.761   1.128  1.00  0.00     0.174 HD
ATOM    214  N1    G A   9     -45.950   5.850   1.148  1.00  0.00    -0.153 N 
ATOM    215  H1    G A   9     -46.444   6.728   1.169  1.00  0.00     0.187 HD
ATOM    216  C6    G A   9     -44.562   5.911   1.158  1.00  0.00     0.292 A 
ATOM    217  O6    G A   9     -43.995   7.010   1.191  1.00  0.00    -0.265 OA
ATOM    218  C5    G A   9     -43.982   4.617   1.126  1.00  0.00     0.173 A 
ATOM    219  N7    G A   9     -42.650   4.227   1.124  1.00  0.00    -0.234 NA
ATOM    220  C8    G A   9     -42.698   2.923   1.088  1.00  0.00     0.214 A 
ATOM    221  C2'   G A   9     -43.254   0.042   1.329  1.00  0.00     0.199 C 
ATOM    222  O2'   G A   9     -42.583  -0.261   0.120  1.00  0.00    -0.388 OA
ATOM    223 'HO2   G A   9     -42.188  -1.129   0.216  1.00  0.00     0.210 HD
ATOM    224  C3'   G A   9     -44.043  -1.155   1.853  1.00  0.00     0.198 C 
ATOM    225  O3'   G A   9     -44.501  -2.008   0.808  1.00  0.00    -0.279 OA
ATOM    226  P     G A  10     -43.723  -3.380   0.494  1.00  0.00     0.408 P 
ATOM    227  OP1   G A  10     -44.595  -4.184  -0.400  1.00  0.00    -0.624 OA
ATOM    228  OP2   G A  10     -43.252  -3.965   1.776  1.00  0.00    -0.624 OA
ATOM    229  O5'   G A  10     -42.445  -2.915  -0.336  1.00  0.00    -0.287 OA
ATOM    230  C5'   G A  10     -42.506  -2.760  -1.752  1.00  0.00     0.216 C 
ATOM    231  C4'   G A  10     -41.178  -2.272  -2.284  1.00  0.00     0.180 C 
ATOM    232  O4'   G A  10     -40.109  -2.831  -1.468  1.00  0.00    -0.353 OA
ATOM    233  C1'   G A  10     -39.318  -3.706  -2.249  1.00  0.00     0.262 C 
ATOM    234  N9    G A  10     -38.992  -4.878  -1.444  1.00  0.00    -0.293 N 
ATOM    235  C4    G A  10     -38.074  -5.851  -1.755  1.00  0.00     0.187 A 
ATOM    236  N3    G A  10     -37.309  -5.894  -2.866  1.00  0.00    -0.044 NA
ATOM    237  C2    G A  10     -36.522  -6.954  -2.883  1.00  0.00     0.703 A 
ATOM    238  N2    G A  10     -35.693  -7.150  -3.914  1.00  0.00    -0.233 N 
ATOM    239  H21   G A  10     -35.682  -6.478  -4.669  1.00  0.00     0.174 HD
ATOM    240  H22   G A  10     -35.078  -7.950  -3.933  1.00  0.00     0.174 HD
ATOM    241  N1    G A  10     -36.486  -7.898  -1.892  1.00  0.00    -0.153 N 
ATOM    242  H1    G A  10     -35.847  -8.670  -1.998  1.00  0.00     0.187 HD
ATOM    243  C6    G A  10     -37.264  -7.878  -0.740  1.00  0.00     0.292 A 
ATOM    244  O6    G A  10     -37.154  -8.787   0.092  1.00  0.00    -0.265 OA
ATOM    245  C5    G A  10     -38.117  -6.743  -0.705  1.00  0.00     0.173 A 
ATOM    246  N7    G A  10     -39.041  -6.338   0.249  1.00  0.00    -0.234 NA
ATOM    247  C8    G A  10     -39.535  -5.231  -0.232  1.00  0.00     0.214 A 
ATOM    248  C2'   G A  10     -40.125  -4.023  -3.504  1.00  0.00     0.199 C 
ATOM    249  O2'   G A  10     -39.231  -4.293  -4.568  1.00  0.00    -0.388 OA
ATOM    250 'HO2   G A  10     -39.761  -4.406  -5.358  1.00  0.00     0.210 HD
ATOM    251  C3'   G A  10     -40.861  -2.705  -3.711  1.00  0.00     0.198 C 
ATOM    252  O3'   G A  10     -40.064  -1.732  -4.381  1.00  0.00    -0.279 OA
ATOM    253  P     U A  11     -40.049  -1.675  -5.989  1.00  0.00     0.408 P 
ATOM    254  OP1   U A  11     -40.345  -0.273  -6.377  1.00  0.00    -0.624 OA
ATOM    255  OP2   U A  11     -40.899  -2.776  -6.514  1.00  0.00    -0.624 OA
ATOM    256  O5'   U A  11     -38.535  -1.984  -6.379  1.00  0.00    -0.287 OA
ATOM    257  C5'   U A  11     -37.533  -2.159  -5.378  1.00  0.00     0.216 C 
ATOM    258  C4'   U A  11     -36.158  -2.073  -5.997  1.00  0.00     0.180 C 
ATOM    259  O4'   U A  11     -36.048  -0.814  -6.719  1.00  0.00    -0.353 OA
ATOM    260  C1'   U A  11     -35.130   0.038  -6.060  1.00  0.00     0.264 C 
ATOM    261  N1    U A  11     -35.722   1.382  -5.988  1.00  0.00    -0.280 N 
ATOM    262  C6    U A  11     -37.048   1.559  -5.668  1.00  0.00     0.104 A 
ATOM    263  C2    U A  11     -34.903   2.465  -6.252  1.00  0.00     0.331 A 
ATOM    264  O2    U A  11     -33.724   2.351  -6.539  1.00  0.00    -0.246 OA
ATOM    265  N3    U A  11     -35.515   3.688  -6.169  1.00  0.00    -0.275 N 
ATOM    266  H3    U A  11     -34.939   4.493  -6.362  1.00  0.00     0.173 HD
ATOM    267  C4    U A  11     -36.831   3.937  -5.855  1.00  0.00     0.250 A 
ATOM    268  O4    U A  11     -37.235   5.099  -5.820  1.00  0.00    -0.268 OA
ATOM    269  C5    U A  11     -37.612   2.768  -5.595  1.00  0.00     0.092 A 
ATOM    270  C2'   U A  11     -34.833  -0.583  -4.696  1.00  0.00     0.199 C 
ATOM    271  O2'   U A  11     -33.497  -0.280  -4.342  1.00  0.00    -0.388 OA
ATOM    272 'HO2   U A  11     -32.997  -1.095  -4.402  1.00  0.00     0.210 HD
ATOM    273  C3'   U A  11     -35.003  -2.065  -5.005  1.00  0.00     0.198 C 
ATOM    274  O3'   U A  11     -33.827  -2.638  -5.569  1.00  0.00    -0.279 OA
ATOM    275  P     G A  12     -33.541  -4.211  -5.397  1.00  0.00     0.408 P 
ATOM    276  OP1   G A  12     -32.223  -4.496  -6.019  1.00  0.00    -0.624 OA
ATOM    277  OP2   G A  12     -34.740  -4.964  -5.843  1.00  0.00    -0.624 OA
ATOM    278  O5'   G A  12     -33.395  -4.406  -3.822  1.00  0.00    -0.287 OA
ATOM    279  C5'   G A  12     -32.365  -3.745  -3.087  1.00  0.00     0.216 C 
ATOM    280  C4'   G A  12     -32.209  -4.378  -1.724  1.00  0.00     0.180 C 
ATOM    281  O4'   G A  12     -32.959  -3.582  -0.763  1.00  0.00    -0.353 OA
ATOM    282  C1'   G A  12     -33.913  -4.395  -0.113  1.00  0.00     0.262 C 
ATOM    283  N9    G A  12     -35.109  -3.598   0.139  1.00  0.00    -0.293 N 
ATOM    284  C4    G A  12     -36.097  -3.881   1.049  1.00  0.00     0.187 A 
ATOM    285  N3    G A  12     -36.132  -4.950   1.871  1.00  0.00    -0.044 NA
ATOM    286  C2    G A  12     -37.211  -4.952   2.632  1.00  0.00     0.703 A 
ATOM    287  N2    G A  12     -37.405  -5.946   3.502  1.00  0.00    -0.233 N 
ATOM    288  H21   G A  12     -36.715  -6.681   3.561  1.00  0.00     0.174 HD
ATOM    289  H22   G A  12     -38.229  -5.969   4.082  1.00  0.00     0.174 HD
ATOM    290  N1    G A  12     -38.178  -3.981   2.595  1.00  0.00    -0.153 N 
ATOM    291  H1    G A  12     -38.966  -4.071   3.217  1.00  0.00     0.187 HD
ATOM    292  C6    G A  12     -38.163  -2.869   1.760  1.00  0.00     0.292 A 
ATOM    293  O6    G A  12     -39.087  -2.050   1.812  1.00  0.00    -0.265 OA
ATOM    294  C5    G A  12     -37.010  -2.855   0.931  1.00  0.00     0.173 A 
ATOM    295  N7    G A  12     -36.605  -1.943  -0.036  1.00  0.00    -0.234 NA
ATOM    296  C8    G A  12     -35.474  -2.425  -0.476  1.00  0.00     0.214 A 
ATOM    297  C2'   G A  12     -34.147  -5.595  -1.025  1.00  0.00     0.199 C 
ATOM    298  O2'   G A  12     -34.539  -6.702  -0.234  1.00  0.00    -0.388 OA
ATOM    299 'HO2   G A  12     -33.770  -6.962   0.275  1.00  0.00     0.210 HD
ATOM    300  C3'   G A  12     -32.751  -5.801  -1.601  1.00  0.00     0.198 C 
ATOM    301  O3'   G A  12     -31.934  -6.603  -0.751  1.00  0.00    -0.279 OA
ATOM    302  P     U A  13     -30.744  -7.483  -1.380  1.00  0.00     0.408 P 
ATOM    303  OP1   U A  13     -31.164  -7.914  -2.739  1.00  0.00    -0.624 OA
ATOM    304  OP2   U A  13     -30.350  -8.505  -0.378  1.00  0.00    -0.624 OA
ATOM    305  O5'   U A  13     -29.543  -6.447  -1.542  1.00  0.00    -0.287 OA
ATOM    306  C5'   U A  13     -28.680  -6.145  -0.447  1.00  0.00     0.216 C 
ATOM    307  C4'   U A  13     -27.497  -5.333  -0.923  1.00  0.00     0.180 C 
ATOM    308  O4'   U A  13     -26.784  -6.101  -1.933  1.00  0.00    -0.353 OA
ATOM    309  C1'   U A  13     -26.854  -5.434  -3.179  1.00  0.00     0.264 C 
ATOM    310  N1    U A  13     -27.091  -6.435  -4.228  1.00  0.00    -0.280 N 
ATOM    311  C6    U A  13     -28.000  -7.453  -4.048  1.00  0.00     0.104 A 
ATOM    312  C2    U A  13     -26.373  -6.321  -5.404  1.00  0.00     0.331 A 
ATOM    313  O2    U A  13     -25.559  -5.437  -5.600  1.00  0.00    -0.246 OA
ATOM    314  N3    U A  13     -26.643  -7.283  -6.344  1.00  0.00    -0.275 N 
ATOM    315  H3    U A  13     -26.134  -7.215  -7.211  1.00  0.00     0.173 HD
ATOM    316  C4    U A  13     -27.535  -8.324  -6.231  1.00  0.00     0.250 A 
ATOM    317  O4    U A  13     -27.666  -9.112  -7.168  1.00  0.00    -0.268 OA
ATOM    318  C5    U A  13     -28.237  -8.375  -4.986  1.00  0.00     0.092 A 
ATOM    319  C2'   U A  13     -27.958  -4.386  -3.062  1.00  0.00     0.199 C 
ATOM    320  O2'   U A  13     -27.640  -3.293  -3.900  1.00  0.00    -0.388 OA
ATOM    321 'HO2   U A  13     -27.189  -2.647  -3.353  1.00  0.00     0.210 HD
ATOM    322  C3'   U A  13     -27.846  -4.007  -1.590  1.00  0.00     0.198 C 
ATOM    323  O3'   U A  13     -26.835  -3.029  -1.361  1.00  0.00    -0.279 OA
ATOM    324  P     A A  14     -26.946  -2.045  -0.094  1.00  0.00     0.408 P 
ATOM    325  OP1   A A  14     -25.721  -1.207  -0.074  1.00  0.00    -0.624 OA
ATOM    326  OP2   A A  14     -27.305  -2.850   1.102  1.00  0.00    -0.624 OA
ATOM    327  O5'   A A  14     -28.182  -1.102  -0.446  1.00  0.00    -0.287 OA
ATOM    328  C5'   A A  14     -28.331  -0.544  -1.750  1.00  0.00     0.216 C 
ATOM    329  C4'   A A  14     -29.599   0.272  -1.823  1.00  0.00     0.180 C 
ATOM    330  O4'   A A  14     -30.736  -0.629  -1.751  1.00  0.00    -0.353 OA
ATOM    331  C1'   A A  14     -31.749  -0.059  -0.942  1.00  0.00     0.262 C 
ATOM    332  N9    A A  14     -31.945  -0.923   0.223  1.00  0.00    -0.294 N 
ATOM    333  C4    A A  14     -33.012  -0.889   1.087  1.00  0.00     0.167 A 
ATOM    334  N3    A A  14     -34.072  -0.065   1.041  1.00  0.00    -0.222 NA
ATOM    335  C2    A A  14     -34.911  -0.324   2.041  1.00  0.00     0.237 A 
ATOM    336  N1    A A  14     -34.816  -1.245   3.010  1.00  0.00    -0.222 NA
ATOM    337  C6    A A  14     -33.738  -2.058   3.026  1.00  0.00     0.155 A 
ATOM    338  N6    A A  14     -33.646  -2.975   3.988  1.00  0.00    -0.382 N 
ATOM    339  H61   A A  14     -32.849  -3.593   4.018  1.00  0.00     0.157 HD
ATOM    340  H62   A A  14     -34.374  -3.052   4.686  1.00  0.00     0.157 HD
ATOM    341  C5    A A  14     -32.773  -1.883   2.018  1.00  0.00     0.149 A 
ATOM    342  N7    A A  14     -31.574  -2.530   1.750  1.00  0.00    -0.236 NA
ATOM    343  C8    A A  14     -31.123  -1.924   0.679  1.00  0.00     0.214 A 
ATOM    344  C2'   A A  14     -31.321   1.365  -0.590  1.00  0.00     0.199 C 
ATOM    345  O2'   A A  14     -31.827   2.246  -1.576  1.00  0.00    -0.388 OA
ATOM    346 'HO2   A A  14     -31.075   2.707  -1.944  1.00  0.00     0.210 HD
ATOM    347  C3'   A A  14     -29.803   1.258  -0.679  1.00  0.00     0.198 C 
ATOM    348  O3'   A A  14     -29.184   2.511  -0.964  1.00  0.00    -0.279 OA
ATOM    349  P     G A  15     -28.758   3.486   0.242  1.00  0.00     0.408 P 
ATOM    350  OP1   G A  15     -28.347   4.780  -0.363  1.00  0.00    -0.624 OA
ATOM    351  OP2   G A  15     -27.812   2.756   1.124  1.00  0.00    -0.624 OA
ATOM    352  O5'   G A  15     -30.113   3.721   1.047  1.00  0.00    -0.287 OA
ATOM    353  C5'   G A  15     -31.213   4.410   0.452  1.00  0.00     0.216 C 
ATOM    354  C4'   G A  15     -32.151   4.923   1.520  1.00  0.00     0.180 C 
ATOM    355  O4'   G A  15     -33.177   3.930   1.780  1.00  0.00    -0.353 OA
ATOM    356  C1'   G A  15     -33.596   4.027   3.130  1.00  0.00     0.262 C 
ATOM    357  N9    G A  15     -33.460   2.713   3.753  1.00  0.00    -0.293 N 
ATOM    358  C4    G A  15     -32.302   1.984   3.887  1.00  0.00     0.187 A 
ATOM    359  N3    G A  15     -31.077   2.354   3.461  1.00  0.00    -0.044 NA
ATOM    360  C2    G A  15     -30.163   1.442   3.735  1.00  0.00     0.703 A 
ATOM    361  N2    G A  15     -28.893   1.650   3.385  1.00  0.00    -0.233 N 
ATOM    362  H21   G A  15     -28.649   2.509   2.911  1.00  0.00     0.174 HD
ATOM    363  H22   G A  15     -28.183   0.962   3.581  1.00  0.00     0.174 HD
ATOM    364  N1    G A  15     -30.427   0.259   4.376  1.00  0.00    -0.153 N 
ATOM    365  H1    G A  15     -29.655  -0.371   4.533  1.00  0.00     0.187 HD
ATOM    366  C6    G A  15     -31.678  -0.143   4.827  1.00  0.00     0.292 A 
ATOM    367  O6    G A  15     -31.803  -1.231   5.398  1.00  0.00    -0.265 OA
ATOM    368  C5    G A  15     -32.673   0.826   4.539  1.00  0.00     0.173 A 
ATOM    369  N7    G A  15     -34.036   0.827   4.808  1.00  0.00    -0.234 NA
ATOM    370  C8    G A  15     -34.458   1.962   4.323  1.00  0.00     0.214 A 
ATOM    371  C2'   G A  15     -32.753   5.112   3.804  1.00  0.00     0.199 C 
ATOM    372  O2'   G A  15     -33.470   6.331   3.761  1.00  0.00    -0.388 OA
ATOM    373 'HO2   G A  15     -32.892   6.974   3.348  1.00  0.00     0.210 HD
ATOM    374  C3'   G A  15     -31.534   5.158   2.889  1.00  0.00     0.198 C 
ATOM    375  O3'   G A  15     -30.848   6.405   2.953  1.00  0.00    -0.279 OA
ATOM    376  P     A A  16     -29.650   6.603   4.007  1.00  0.00     0.408 P 
ATOM    377  OP1   A A  16     -29.099   7.966   3.798  1.00  0.00    -0.624 OA
ATOM    378  OP2   A A  16     -28.748   5.426   3.922  1.00  0.00    -0.624 OA
ATOM    379  O5'   A A  16     -30.377   6.577   5.425  1.00  0.00    -0.287 OA
ATOM    380  C5'   A A  16     -31.430   7.491   5.726  1.00  0.00     0.216 C 
ATOM    381  C4'   A A  16     -31.972   7.225   7.111  1.00  0.00     0.180 C 
ATOM    382  O4'   A A  16     -32.718   5.981   7.103  1.00  0.00    -0.353 OA
ATOM    383  C1'   A A  16     -32.584   5.338   8.357  1.00  0.00     0.262 C 
ATOM    384  N9    A A  16     -32.047   3.997   8.132  1.00  0.00    -0.294 N 
ATOM    385  C4    A A  16     -32.244   2.902   8.938  1.00  0.00     0.167 A 
ATOM    386  N3    A A  16     -32.959   2.847  10.075  1.00  0.00    -0.222 NA
ATOM    387  C2    A A  16     -32.929   1.621  10.588  1.00  0.00     0.237 A 
ATOM    388  N1    A A  16     -32.312   0.525  10.128  1.00  0.00    -0.222 NA
ATOM    389  C6    A A  16     -31.603   0.615   8.982  1.00  0.00     0.155 A 
ATOM    390  N6    A A  16     -30.993  -0.478   8.523  1.00  0.00    -0.382 N 
ATOM    391  H61   A A  16     -30.458  -0.439   7.669  1.00  0.00     0.157 HD
ATOM    392  H62   A A  16     -31.067  -1.348   9.034  1.00  0.00     0.157 HD
ATOM    393  C5    A A  16     -31.556   1.864   8.339  1.00  0.00     0.149 A 
ATOM    394  N7    A A  16     -30.935   2.293   7.175  1.00  0.00    -0.236 NA
ATOM    395  C8    A A  16     -31.255   3.562   7.097  1.00  0.00     0.214 A 
ATOM    396  C2'   A A  16     -31.692   6.214   9.241  1.00  0.00     0.199 C 
ATOM    397  O2'   A A  16     -32.522   7.051  10.025  1.00  0.00    -0.388 OA
ATOM    398 'HO2   A A  16     -32.230   7.950   9.876  1.00  0.00     0.210 HD
ATOM    399  C3'   A A  16     -30.927   7.018   8.197  1.00  0.00     0.198 C 
ATOM    400  O3'   A A  16     -30.451   8.262   8.704  1.00  0.00    -0.279 OA
ATOM    401  P     U A  17     -28.934   8.386   9.226  1.00  0.00     0.408 P 
ATOM    402  OP1   U A  17     -28.634   9.834   9.364  1.00  0.00    -0.624 OA
ATOM    403  OP2   U A  17     -28.065   7.536   8.372  1.00  0.00    -0.624 OA
ATOM    404  O5'   U A  17     -28.976   7.747  10.685  1.00  0.00    -0.287 OA
ATOM    405  C5'   U A  17     -29.829   8.280  11.696  1.00  0.00     0.216 C 
ATOM    406  C4'   U A  17     -29.610   7.547  13.000  1.00  0.00     0.180 C 
ATOM    407  O4'   U A  17     -30.267   6.253  12.922  1.00  0.00    -0.353 OA
ATOM    408  C1'   U A  17     -29.454   5.264  13.527  1.00  0.00     0.264 C 
ATOM    409  N1    U A  17     -29.071   4.290  12.496  1.00  0.00    -0.280 N 
ATOM    410  C6    U A  17     -28.790   4.687  11.207  1.00  0.00     0.104 A 
ATOM    411  C2    U A  17     -29.003   2.957  12.860  1.00  0.00     0.331 A 
ATOM    412  O2    U A  17     -29.243   2.566  13.989  1.00  0.00    -0.246 OA
ATOM    413  N3    U A  17     -28.645   2.098  11.854  1.00  0.00    -0.275 N 
ATOM    414  H3    U A  17     -28.586   1.121  12.097  1.00  0.00     0.173 HD
ATOM    415  C4    U A  17     -28.352   2.424  10.550  1.00  0.00     0.250 A 
ATOM    416  O4    U A  17     -28.054   1.532   9.757  1.00  0.00    -0.268 OA
ATOM    417  C5    U A  17     -28.443   3.820  10.251  1.00  0.00     0.092 A 
ATOM    418  C2'   U A  17     -28.267   5.972  14.182  1.00  0.00     0.199 C 
ATOM    419  O2'   U A  17     -28.607   6.282  15.521  1.00  0.00    -0.388 OA
ATOM    420 'HO2   U A  17     -27.787   6.381  16.005  1.00  0.00     0.210 HD
ATOM    421  C3'   U A  17     -28.157   7.233  13.331  1.00  0.00     0.198 C 
ATOM    422  O3'   U A  17     -27.545   8.313  14.032  1.00  0.00    -0.279 OA
ATOM    423  P     G A  18     -26.045   8.763  13.665  1.00  0.00     0.408 P 
ATOM    424  OP1   G A  18     -25.924  10.204  14.009  1.00  0.00    -0.624 OA
ATOM    425  OP2   G A  18     -25.727   8.312  12.286  1.00  0.00    -0.624 OA
ATOM    426  O5'   G A  18     -25.135   7.936  14.678  1.00  0.00    -0.287 OA
ATOM    427  C5'   G A  18     -25.163   8.204  16.079  1.00  0.00     0.216 C 
ATOM    428  C4'   G A  18     -24.392   7.143  16.830  1.00  0.00     0.180 C 
ATOM    429  O4'   G A  18     -25.064   5.866  16.649  1.00  0.00    -0.353 OA
ATOM    430  C1'   G A  18     -24.104   4.843  16.449  1.00  0.00     0.262 C 
ATOM    431  N9    G A  18     -24.256   4.329  15.091  1.00  0.00    -0.293 N 
ATOM    432  C4    G A  18     -24.082   3.029  14.686  1.00  0.00     0.187 A 
ATOM    433  N3    G A  18     -23.732   1.993  15.477  1.00  0.00    -0.044 NA
ATOM    434  C2    G A  18     -23.644   0.864  14.798  1.00  0.00     0.703 A 
ATOM    435  N2    G A  18     -23.299  -0.264  15.426  1.00  0.00    -0.233 N 
ATOM    436  H21   G A  18     -23.108  -0.237  16.417  1.00  0.00     0.174 HD
ATOM    437  H22   G A  18     -23.229  -1.132  14.916  1.00  0.00     0.174 HD
ATOM    438  N1    G A  18     -23.885   0.755  13.452  1.00  0.00    -0.153 N 
ATOM    439  H1    G A  18     -23.794  -0.157  13.033  1.00  0.00     0.187 HD
ATOM    440  C6    G A  18     -24.248   1.806  12.618  1.00  0.00     0.292 A 
ATOM    441  O6    G A  18     -24.443   1.598  11.415  1.00  0.00    -0.265 OA
ATOM    442  C5    G A  18     -24.342   3.029  13.332  1.00  0.00     0.173 A 
ATOM    443  N7    G A  18     -24.670   4.306  12.894  1.00  0.00    -0.234 NA
ATOM    444  C8    G A  18     -24.604   5.040  13.969  1.00  0.00     0.214 A 
ATOM    445  C2'   G A  18     -22.728   5.447  16.729  1.00  0.00     0.199 C 
ATOM    446  O2'   G A  18     -22.449   5.311  18.110  1.00  0.00    -0.388 OA
ATOM    447 'HO2   G A  18     -21.609   4.856  18.178  1.00  0.00     0.210 HD
ATOM    448  C3'   G A  18     -22.966   6.903  16.350  1.00  0.00     0.198 C 
ATOM    449  O3'   G A  18     -22.040   7.785  16.981  1.00  0.00    -0.279 OA
ATOM    450  P     G A  19     -20.495   7.775  16.532  1.00  0.00     0.408 P 
ATOM    451  OP1   G A  19     -19.824   8.901  17.230  1.00  0.00    -0.624 OA
ATOM    452  OP2   G A  19     -20.442   7.696  15.050  1.00  0.00    -0.624 OA
ATOM    453  O5'   G A  19     -19.923   6.413  17.130  1.00  0.00    -0.287 OA
ATOM    454  C5'   G A  19     -18.893   5.689  16.458  1.00  0.00     0.216 C 
ATOM    455  C4'   G A  19     -18.776   4.297  17.032  1.00  0.00     0.180 C 
ATOM    456  O4'   G A  19     -19.944   3.532  16.633  1.00  0.00    -0.353 OA
ATOM    457  C1'   G A  19     -19.558   2.224  16.255  1.00  0.00     0.262 C 
ATOM    458  N9    G A  19     -19.857   2.051  14.837  1.00  0.00    -0.293 N 
ATOM    459  C4    G A  19     -19.566   0.950  14.067  1.00  0.00     0.187 A 
ATOM    460  N3    G A  19     -18.948  -0.173  14.489  1.00  0.00    -0.044 NA
ATOM    461  C2    G A  19     -18.810  -1.055  13.515  1.00  0.00     0.703 A 
ATOM    462  N2    G A  19     -18.218  -2.226  13.762  1.00  0.00    -0.233 N 
ATOM    463  H21   G A  19     -17.883  -2.425  14.693  1.00  0.00     0.174 HD
ATOM    464  H22   G A  19     -18.101  -2.903  13.023  1.00  0.00     0.174 HD
ATOM    465  N1    G A  19     -19.242  -0.855  12.230  1.00  0.00    -0.153 N 
ATOM    466  H1    G A  19     -19.086  -1.593  11.561  1.00  0.00     0.187 HD
ATOM    467  C6    G A  19     -19.882   0.291  11.772  1.00  0.00     0.292 A 
ATOM    468  O6    G A  19     -20.232   0.367  10.589  1.00  0.00    -0.265 OA
ATOM    469  C5    G A  19     -20.039   1.250  12.806  1.00  0.00     0.173 A 
ATOM    470  N7    G A  19     -20.615   2.514  12.784  1.00  0.00    -0.234 NA
ATOM    471  C8    G A  19     -20.484   2.947  14.007  1.00  0.00     0.214 A 
ATOM    472  C2'   G A  19     -18.078   2.054  16.601  1.00  0.00     0.199 C 
ATOM    473  O2'   G A  19     -17.977   1.536  17.915  1.00  0.00    -0.388 OA
ATOM    474 'HO2   G A  19     -17.076   1.691  18.202  1.00  0.00     0.210 HD
ATOM    475  C3'   G A  19     -17.580   3.494  16.535  1.00  0.00     0.198 C 
ATOM    476  O3'   G A  19     -16.438   3.709  17.363  1.00  0.00    -0.279 OA
ATOM    477  P     U A  20     -15.104   4.357  16.739  1.00  0.00     0.408 P 
ATOM    478  OP1   U A  20     -14.265   4.826  17.870  1.00  0.00    -0.624 OA
ATOM    479  OP2   U A  20     -15.499   5.316  15.674  1.00  0.00    -0.624 OA
ATOM    480  O5'   U A  20     -14.363   3.124  16.052  1.00  0.00    -0.287 OA
ATOM    481  C5'   U A  20     -14.278   1.861  16.710  1.00  0.00     0.216 C 
ATOM    482  C4'   U A  20     -13.936   0.773  15.717  1.00  0.00     0.180 C 
ATOM    483  O4'   U A  20     -14.950   0.766  14.673  1.00  0.00    -0.353 OA
ATOM    484  C1'   U A  20     -14.363   1.099  13.431  1.00  0.00     0.264 C 
ATOM    485  N1    U A  20     -15.263   2.025  12.730  1.00  0.00    -0.280 N 
ATOM    486  C6    U A  20     -15.658   3.204  13.317  1.00  0.00     0.104 A 
ATOM    487  C2    U A  20     -15.693   1.679  11.464  1.00  0.00     0.331 A 
ATOM    488  O2    U A  20     -15.370   0.640  10.914  1.00  0.00    -0.246 OA
ATOM    489  N3    U A  20     -16.517   2.597  10.864  1.00  0.00    -0.275 N 
ATOM    490  H3    U A  20     -16.866   2.372   9.946  1.00  0.00     0.173 HD
ATOM    491  C4    U A  20     -16.946   3.795  11.388  1.00  0.00     0.250 A 
ATOM    492  O4    U A  20     -17.685   4.517  10.720  1.00  0.00    -0.268 OA
ATOM    493  C5    U A  20     -16.463   4.074  12.702  1.00  0.00     0.092 A 
ATOM    494  C2'   U A  20     -12.986   1.692  13.726  1.00  0.00     0.199 C 
ATOM    495  O2'   U A  20     -12.116   1.365  12.659  1.00  0.00    -0.388 OA
ATOM    496 'HO2   U A  20     -11.732   0.514  12.870  1.00  0.00     0.210 HD
ATOM    497  C3'   U A  20     -12.602   0.946  14.998  1.00  0.00     0.198 C 
ATOM    498  O3'   U A  20     -11.990  -0.311  14.721  1.00  0.00    -0.279 OA
ATOM    499  P     U A  21     -10.979  -0.959  15.791  1.00  0.00     0.408 P 
ATOM    500  OP1   U A  21      -9.988   0.085  16.158  1.00  0.00    -0.624 OA
ATOM    501  OP2   U A  21     -10.507  -2.260  15.251  1.00  0.00    -0.624 OA
ATOM    502  O5'   U A  21     -11.897  -1.247  17.061  1.00  0.00    -0.287 OA
ATOM    503  C5'   U A  21     -11.325  -1.471  18.349  1.00  0.00     0.216 C 
ATOM    504  C4'   U A  21     -12.366  -2.031  19.292  1.00  0.00     0.180 C 
ATOM    505  O4'   U A  21     -13.172  -3.007  18.579  1.00  0.00    -0.353 OA
ATOM    506  C1'   U A  21     -12.851  -4.313  19.021  1.00  0.00     0.264 C 
ATOM    507  N1    U A  21     -12.616  -5.154  17.838  1.00  0.00    -0.280 N 
ATOM    508  C6    U A  21     -12.081  -4.625  16.685  1.00  0.00     0.104 A 
ATOM    509  C2    U A  21     -12.951  -6.493  17.919  1.00  0.00     0.331 A 
ATOM    510  O2    U A  21     -13.425  -7.000  18.919  1.00  0.00    -0.246 OA
ATOM    511  N3    U A  21     -12.710  -7.220  16.782  1.00  0.00    -0.275 N 
ATOM    512  H3    U A  21     -12.941  -8.200  16.819  1.00  0.00     0.173 HD
ATOM    513  C4    U A  21     -12.181  -6.757  15.598  1.00  0.00     0.250 A 
ATOM    514  O4    U A  21     -12.036  -7.535  14.656  1.00  0.00    -0.268 OA
ATOM    515  C5    U A  21     -11.859  -5.365  15.594  1.00  0.00     0.092 A 
ATOM    516  C2'   U A  21     -11.640  -4.200  19.948  1.00  0.00     0.199 C 
ATOM    517  O2'   U A  21     -11.764  -5.164  20.977  1.00  0.00    -0.388 OA
ATOM    518 'HO2   U A  21     -12.316  -4.775  21.658  1.00  0.00     0.210 HD
ATOM    519  C3'   U A  21     -11.812  -2.787  20.493  1.00  0.00     0.198 C 
ATOM    520  O3'   U A  21     -12.709  -2.734  21.601  1.00  0.00    -0.279 OA
ATOM    521  P     A A  22     -12.566  -1.560  22.690  1.00  0.00     0.408 P 
ATOM    522  OP1   A A  22     -11.877  -0.416  22.038  1.00  0.00    -0.624 OA
ATOM    523  OP2   A A  22     -11.995  -2.141  23.932  1.00  0.00    -0.624 OA
ATOM    524  O5'   A A  22     -14.069  -1.127  22.998  1.00  0.00    -0.287 OA
ATOM    525  C5'   A A  22     -14.392   0.217  23.358  1.00  0.00     0.216 C 
ATOM    526  C4'   A A  22     -14.701   1.032  22.120  1.00  0.00     0.180 C 
ATOM    527  O4'   A A  22     -14.360   0.254  20.940  1.00  0.00    -0.353 OA
ATOM    528  C1'   A A  22     -15.326   0.469  19.929  1.00  0.00     0.262 C 
ATOM    529  N9    A A  22     -15.991  -0.802  19.648  1.00  0.00    -0.294 N 
ATOM    530  C4    A A  22     -16.308  -1.297  18.407  1.00  0.00     0.167 A 
ATOM    531  N3    A A  22     -16.067  -0.722  17.217  1.00  0.00    -0.222 NA
ATOM    532  C2    A A  22     -16.516  -1.489  16.226  1.00  0.00     0.237 A 
ATOM    533  N1    A A  22     -17.133  -2.677  16.287  1.00  0.00    -0.222 NA
ATOM    534  C6    A A  22     -17.360  -3.226  17.500  1.00  0.00     0.155 A 
ATOM    535  N6    A A  22     -17.975  -4.406  17.559  1.00  0.00    -0.382 N 
ATOM    536  H61   A A  22     -18.156  -4.833  18.457  1.00  0.00     0.157 HD
ATOM    537  H62   A A  22     -18.262  -4.870  16.710  1.00  0.00     0.157 HD
ATOM    538  C5    A A  22     -16.931  -2.510  18.631  1.00  0.00     0.149 A 
ATOM    539  N7    A A  22     -17.003  -2.780  19.991  1.00  0.00    -0.236 NA
ATOM    540  C8    A A  22     -16.432  -1.740  20.549  1.00  0.00     0.214 A 
ATOM    541  C2'   A A  22     -16.277   1.560  20.418  1.00  0.00     0.199 C 
ATOM    542  O2'   A A  22     -15.779   2.817  19.998  1.00  0.00    -0.388 OA
ATOM    543 'HO2   A A  22     -16.532   3.337  19.713  1.00  0.00     0.210 HD
ATOM    544  C3'   A A  22     -16.168   1.395  21.929  1.00  0.00     0.198 C 
ATOM    545  O3'   A A  22     -16.509   2.586  22.633  1.00  0.00    -0.279 OA
ATOM    546  P     U A  23     -18.045   3.058  22.703  1.00  0.00     0.408 P 
ATOM    547  OP1   U A  23     -18.419   3.549  21.352  1.00  0.00    -0.624 OA
ATOM    548  OP2   U A  23     -18.204   3.953  23.878  1.00  0.00    -0.624 OA
ATOM    549  O5'   U A  23     -18.847   1.711  22.991  1.00  0.00    -0.287 OA
ATOM    550  C5'   U A  23     -20.272   1.702  23.067  1.00  0.00     0.216 C 
ATOM    551  C4'   U A  23     -20.870   1.849  21.687  1.00  0.00     0.180 C 
ATOM    552  O4'   U A  23     -20.106   1.046  20.755  1.00  0.00    -0.353 OA
ATOM    553  C1'   U A  23     -20.954   0.578  19.725  1.00  0.00     0.264 C 
ATOM    554  N1    U A  23     -20.768  -0.876  19.604  1.00  0.00    -0.280 N 
ATOM    555  C6    U A  23     -20.291  -1.624  20.658  1.00  0.00     0.104 A 
ATOM    556  C2    U A  23     -21.083  -1.468  18.395  1.00  0.00     0.331 A 
ATOM    557  O2    U A  23     -21.512  -0.843  17.442  1.00  0.00    -0.246 OA
ATOM    558  N3    U A  23     -20.879  -2.824  18.342  1.00  0.00    -0.275 N 
ATOM    559  H3    U A  23     -21.099  -3.275  17.468  1.00  0.00     0.173 HD
ATOM    560  C4    U A  23     -20.406  -3.630  19.352  1.00  0.00     0.250 A 
ATOM    561  O4    U A  23     -20.265  -4.835  19.147  1.00  0.00    -0.268 OA
ATOM    562  C5    U A  23     -20.107  -2.945  20.570  1.00  0.00     0.092 A 
ATOM    563  C2'   U A  23     -22.392   0.994  20.054  1.00  0.00     0.199 C 
ATOM    564  O2'   U A  23     -22.713   2.137  19.283  1.00  0.00    -0.388 OA
ATOM    565 'HO2   U A  23     -22.909   2.845  19.897  1.00  0.00     0.210 HD
ATOM    566  C3'   U A  23     -22.297   1.341  21.538  1.00  0.00     0.198 C 
ATOM    567  O3'   U A  23     -23.236   2.343  21.920  1.00  0.00    -0.279 OA
ATOM    568  P     C A  24     -24.673   1.916  22.499  1.00  0.00     0.408 P 
ATOM    569  OP1   C A  24     -24.510   1.677  23.956  1.00  0.00    -0.624 OA
ATOM    570  OP2   C A  24     -25.232   0.842  21.638  1.00  0.00    -0.624 OA
ATOM    571  O5'   C A  24     -25.565   3.223  22.318  1.00  0.00    -0.287 OA
ATOM    572  C5'   C A  24     -25.507   3.995  21.120  1.00  0.00     0.216 C 
ATOM    573  C4'   C A  24     -26.737   4.864  20.997  1.00  0.00     0.180 C 
ATOM    574  O4'   C A  24     -27.919   4.022  21.101  1.00  0.00    -0.353 OA
ATOM    575  C1'   C A  24     -28.899   4.665  21.896  1.00  0.00     0.264 C 
ATOM    576  N1    C A  24     -29.084   3.882  23.129  1.00  0.00    -0.278 N 
ATOM    577  C6    C A  24     -28.022   3.268  23.733  1.00  0.00     0.102 A 
ATOM    578  C2    C A  24     -30.365   3.775  23.677  1.00  0.00     0.352 A 
ATOM    579  O2    C A  24     -31.310   4.337  23.106  1.00  0.00    -0.244 OA
ATOM    580  N3    C A  24     -30.541   3.062  24.812  1.00  0.00    -0.177 NA
ATOM    581  C4    C A  24     -29.497   2.469  25.394  1.00  0.00     0.128 A 
ATOM    582  N4    C A  24     -29.720   1.780  26.512  1.00  0.00    -0.384 N 
ATOM    583  H41   C A  24     -28.957   1.318  26.982  1.00  0.00     0.157 HD
ATOM    584  H42   C A  24     -30.658   1.725  26.881  1.00  0.00     0.157 HD
ATOM    585  C5    C A  24     -28.181   2.557  24.856  1.00  0.00     0.067 A 
ATOM    586  C2'   C A  24     -28.419   6.095  22.143  1.00  0.00     0.199 C 
ATOM    587  O2'   C A  24     -28.872   6.917  21.082  1.00  0.00    -0.388 OA
ATOM    588 'HO2   C A  24     -28.093   7.246  20.631  1.00  0.00     0.210 HD
ATOM    589  C3'   C A  24     -26.907   5.911  22.091  1.00  0.00     0.198 C 
ATOM    590  O3'   C A  24     -26.229   7.123  21.772  1.00  0.00    -0.279 OA
ATOM    591  P     A A  25     -25.673   8.062  22.954  1.00  0.00     0.408 P 
ATOM    592  OP1   A A  25     -25.076   9.268  22.324  1.00  0.00    -0.624 OA
ATOM    593  OP2   A A  25     -24.849   7.226  23.864  1.00  0.00    -0.624 OA
ATOM    594  O5'   A A  25     -26.983   8.510  23.743  1.00  0.00    -0.287 OA
ATOM    595  C5'   A A  25     -27.916   9.422  23.163  1.00  0.00     0.216 C 
ATOM    596  C4'   A A  25     -28.668  10.159  24.249  1.00  0.00     0.180 C 
ATOM    597  O4'   A A  25     -29.713   9.285  24.762  1.00  0.00    -0.353 OA
ATOM    598  C1'   A A  25     -29.718   9.323  26.176  1.00  0.00     0.262 C 
ATOM    599  N9    A A  25     -29.233   8.036  26.671  1.00  0.00    -0.294 N 
ATOM    600  C4    A A  25     -29.425   7.523  27.931  1.00  0.00     0.167 A 
ATOM    601  N3    A A  25     -30.090   8.093  28.950  1.00  0.00    -0.222 NA
ATOM    602  C2    A A  25     -30.071   7.304  30.022  1.00  0.00     0.237 A 
ATOM    603  N1    A A  25     -29.504   6.101  30.179  1.00  0.00    -0.222 NA
ATOM    604  C6    A A  25     -28.842   5.558  29.136  1.00  0.00     0.155 A 
ATOM    605  N6    A A  25     -28.272   4.364  29.294  1.00  0.00    -0.382 N 
ATOM    606  H61   A A  25     -27.771   3.942  28.525  1.00  0.00     0.157 HD
ATOM    607  H62   A A  25     -28.341   3.889  30.182  1.00  0.00     0.157 HD
ATOM    608  C5    A A  25     -28.790   6.294  27.939  1.00  0.00     0.149 A 
ATOM    609  N7    A A  25     -28.208   6.034  26.707  1.00  0.00    -0.236 NA
ATOM    610  C8    A A  25     -28.498   7.094  25.992  1.00  0.00     0.214 A 
ATOM    611  C2'   A A  25     -28.855  10.508  26.599  1.00  0.00     0.199 C 
ATOM    612  O2'   A A  25     -29.661  11.673  26.615  1.00  0.00    -0.388 OA
ATOM    613 'HO2   A A  25     -29.158  12.360  27.055  1.00  0.00     0.210 HD
ATOM    614  C3'   A A  25     -27.837  10.550  25.466  1.00  0.00     0.198 C 
ATOM    615  O3'   A A  25     -27.253  11.840  25.304  1.00  0.00    -0.279 OA
ATOM    616  P     C A  26     -26.275  12.422  26.440  1.00  0.00     0.408 P 
ATOM    617  OP1   C A  26     -25.411  13.447  25.798  1.00  0.00    -0.624 OA
ATOM    618  OP2   C A  26     -25.650  11.282  27.157  1.00  0.00    -0.624 OA
ATOM    619  O5'   C A  26     -27.256  13.167  27.451  1.00  0.00    -0.287 OA
ATOM    620  C5'   C A  26     -26.791  13.635  28.717  1.00  0.00     0.216 C 
ATOM    621  C4'   C A  26     -27.960  14.009  29.597  1.00  0.00     0.180 C 
ATOM    622  O4'   C A  26     -28.951  12.945  29.541  1.00  0.00    -0.353 OA
ATOM    623  C1'   C A  26     -29.445  12.681  30.844  1.00  0.00     0.264 C 
ATOM    624  N1    C A  26     -28.984  11.344  31.254  1.00  0.00    -0.278 N 
ATOM    625  C6    C A  26     -27.942  10.735  30.612  1.00  0.00     0.102 A 
ATOM    626  C2    C A  26     -29.627  10.704  32.318  1.00  0.00     0.352 A 
ATOM    627  O2    C A  26     -30.570  11.277  32.883  1.00  0.00    -0.244 OA
ATOM    628  N3    C A  26     -29.206   9.478  32.703  1.00  0.00    -0.177 NA
ATOM    629  C4    C A  26     -28.187   8.896  32.071  1.00  0.00     0.128 A 
ATOM    630  N4    C A  26     -27.807   7.689  32.487  1.00  0.00    -0.384 N 
ATOM    631  H41   C A  26     -27.041   7.217  32.034  1.00  0.00     0.157 HD
ATOM    632  H42   C A  26     -28.291   7.259  33.260  1.00  0.00     0.157 HD
ATOM    633  C5    C A  26     -27.512   9.523  30.985  1.00  0.00     0.067 A 
ATOM    634  C2'   C A  26     -28.953  13.811  31.747  1.00  0.00     0.199 C 
ATOM    635  O2'   C A  26     -29.868  14.889  31.670  1.00  0.00    -0.388 OA
ATOM    636 'HO2   C A  26     -29.344  15.686  31.589  1.00  0.00     0.210 HD
ATOM    637  C3'   C A  26     -27.632  14.163  31.076  1.00  0.00     0.198 C 
ATOM    638  O3'   C A  26     -27.201  15.488  31.382  1.00  0.00    -0.279 OA
ATOM    639  P     G A  27     -25.742  15.730  32.016  1.00  0.00     0.408 P 
ATOM    640  OP1   G A  27     -25.452  17.183  31.911  1.00  0.00    -0.624 OA
ATOM    641  OP2   G A  27     -24.799  14.749  31.419  1.00  0.00    -0.624 OA
ATOM    642  O5'   G A  27     -25.924  15.369  33.558  1.00  0.00    -0.287 OA
ATOM    643  C5'   G A  27     -26.535  16.291  34.461  1.00  0.00     0.216 C 
ATOM    644  C4'   G A  27     -27.157  15.552  35.624  1.00  0.00     0.180 C 
ATOM    645  O4'   G A  27     -27.780  14.332  35.149  1.00  0.00    -0.353 OA
ATOM    646  C1'   G A  27     -27.756  13.360  36.180  1.00  0.00     0.262 C 
ATOM    647  N9    G A  27     -27.152  12.139  35.656  1.00  0.00    -0.293 N 
ATOM    648  C4    G A  27     -26.736  11.055  36.392  1.00  0.00     0.187 A 
ATOM    649  N3    G A  27     -26.812  10.935  37.733  1.00  0.00    -0.044 NA
ATOM    650  C2    G A  27     -26.333   9.779  38.153  1.00  0.00     0.703 A 
ATOM    651  N2    G A  27     -26.329   9.504  39.458  1.00  0.00    -0.233 N 
ATOM    652  H21   G A  27     -26.695  10.188  40.105  1.00  0.00     0.174 HD
ATOM    653  H22   G A  27     -25.969   8.626  39.799  1.00  0.00     0.174 HD
ATOM    654  N1    G A  27     -25.820   8.814  37.324  1.00  0.00    -0.153 N 
ATOM    655  H1    G A  27     -25.479   7.964  37.747  1.00  0.00     0.187 HD
ATOM    656  C6    G A  27     -25.733   8.913  35.939  1.00  0.00     0.292 A 
ATOM    657  O6    G A  27     -25.253   7.979  35.285  1.00  0.00    -0.265 OA
ATOM    658  C5    G A  27     -26.242  10.155  35.473  1.00  0.00     0.173 A 
ATOM    659  N7    G A  27     -26.344  10.660  34.184  1.00  0.00    -0.234 NA
ATOM    660  C8    G A  27     -26.886  11.836  34.342  1.00  0.00     0.214 A 
ATOM    661  C2'   G A  27     -26.995  13.957  37.369  1.00  0.00     0.199 C 
ATOM    662  O2'   G A  27     -27.933  14.498  38.281  1.00  0.00    -0.388 OA
ATOM    663 'HO2   G A  27     -27.625  15.377  38.506  1.00  0.00     0.210 HD
ATOM    664  C3'   G A  27     -26.190  15.058  36.689  1.00  0.00     0.198 C 
ATOM    665  O3'   G A  27     -25.816  16.094  37.595  1.00  0.00    -0.279 OA
ATOM    666  P     C A  28     -24.407  16.009  38.369  1.00  0.00     0.408 P 
ATOM    667  OP1   C A  28     -24.355  17.142  39.327  1.00  0.00    -0.624 OA
ATOM    668  OP2   C A  28     -23.330  15.851  37.360  1.00  0.00    -0.624 OA
ATOM    669  O5'   C A  28     -24.506  14.654  39.204  1.00  0.00    -0.287 OA
ATOM    670  C5'   C A  28     -25.312  14.569  40.379  1.00  0.00     0.216 C 
ATOM    671  C4'   C A  28     -24.772  13.505  41.306  1.00  0.00     0.180 C 
ATOM    672  O4'   C A  28     -25.150  12.196  40.793  1.00  0.00    -0.353 OA
ATOM    673  C1'   C A  28     -24.059  11.300  40.917  1.00  0.00     0.264 C 
ATOM    674  N1    C A  28     -23.569  10.971  39.568  1.00  0.00    -0.278 N 
ATOM    675  C6    C A  28     -23.921  11.733  38.489  1.00  0.00     0.102 A 
ATOM    676  C2    C A  28     -22.734   9.864  39.406  1.00  0.00     0.352 A 
ATOM    677  O2    C A  28     -22.426   9.191  40.400  1.00  0.00    -0.244 OA
ATOM    678  N3    C A  28     -22.282   9.552  38.172  1.00  0.00    -0.177 NA
ATOM    679  C4    C A  28     -22.634  10.299  37.125  1.00  0.00     0.128 A 
ATOM    680  N4    C A  28     -22.167   9.950  35.928  1.00  0.00    -0.384 N 
ATOM    681  H41   C A  28     -22.409  10.488  35.108  1.00  0.00     0.157 HD
ATOM    682  H42   C A  28     -21.566   9.143  35.843  1.00  0.00     0.157 HD
ATOM    683  C5    C A  28     -23.482  11.436  37.260  1.00  0.00     0.067 A 
ATOM    684  C2'   C A  28     -23.016  11.988  41.795  1.00  0.00     0.199 C 
ATOM    685  O2'   C A  28     -23.331  11.742  43.153  1.00  0.00    -0.388 OA
ATOM    686 'HO2   C A  28     -23.066  12.519  43.646  1.00  0.00     0.210 HD
ATOM    687  C3'   C A  28     -23.253  13.445  41.426  1.00  0.00     0.198 C 
ATOM    688  O3'   C A  28     -22.762  14.346  42.413  1.00  0.00    -0.279 OA
ATOM    689  P     U A  29     -21.294  14.985  42.252  1.00  0.00     0.408 P 
ATOM    690  OP1   U A  29     -21.152  16.042  43.285  1.00  0.00    -0.624 OA
ATOM    691  OP2   U A  29     -21.083  15.324  40.821  1.00  0.00    -0.624 OA
ATOM    692  O5'   U A  29     -20.310  13.788  42.627  1.00  0.00    -0.287 OA
ATOM    693  C5'   U A  29     -20.312  13.220  43.936  1.00  0.00     0.216 C 
ATOM    694  C4'   U A  29     -19.513  11.936  43.952  1.00  0.00     0.180 C 
ATOM    695  O4'   U A  29     -20.088  11.006  42.994  1.00  0.00    -0.353 OA
ATOM    696  C1'   U A  29     -19.054  10.249  42.386  1.00  0.00     0.264 C 
ATOM    697  N1    U A  29     -19.062  10.522  40.941  1.00  0.00    -0.280 N 
ATOM    698  C6    U A  29     -19.688  11.633  40.424  1.00  0.00     0.104 A 
ATOM    699  C2    U A  29     -18.411   9.624  40.117  1.00  0.00     0.331 A 
ATOM    700  O2    U A  29     -17.846   8.628  40.534  1.00  0.00    -0.246 OA
ATOM    701  N3    U A  29     -18.443   9.933  38.782  1.00  0.00    -0.275 N 
ATOM    702  H3    U A  29     -17.970   9.289  38.167  1.00  0.00     0.173 HD
ATOM    703  C4    U A  29     -19.048  11.021  38.199  1.00  0.00     0.250 A 
ATOM    704  O4    U A  29     -18.984  11.163  36.977  1.00  0.00    -0.268 OA
ATOM    705  C5    U A  29     -19.703  11.901  39.115  1.00  0.00     0.092 A 
ATOM    706  C2'   U A  29     -17.742  10.637  43.067  1.00  0.00     0.199 C 
ATOM    707  O2'   U A  29     -17.529   9.777  44.170  1.00  0.00    -0.388 OA
ATOM    708 'HO2   U A  29     -16.619   9.889  44.446  1.00  0.00     0.210 HD
ATOM    709  C3'   U A  29     -18.059  12.056  43.520  1.00  0.00     0.198 C 
ATOM    710  O3'   U A  29     -17.220  12.490  44.587  1.00  0.00    -0.279 OA
ATOM    711  P     U A  30     -15.794  13.159  44.262  1.00  0.00     0.408 P 
ATOM    712  OP1   U A  30     -15.274  13.736  45.528  1.00  0.00    -0.624 OA
ATOM    713  OP2   U A  30     -15.941  14.028  43.066  1.00  0.00    -0.624 OA
ATOM    714  O5'   U A  30     -14.869  11.925  43.859  1.00  0.00    -0.287 OA
ATOM    715  C5'   U A  30     -14.148  11.191  44.849  1.00  0.00     0.216 C 
ATOM    716  C4'   U A  30     -13.357  10.077  44.202  1.00  0.00     0.180 C 
ATOM    717  O4'   U A  30     -14.208   9.376  43.251  1.00  0.00    -0.353 OA
ATOM    718  C1'   U A  30     -13.457   9.040  42.095  1.00  0.00     0.264 C 
ATOM    719  N1    U A  30     -13.995   9.797  40.954  1.00  0.00    -0.280 N 
ATOM    720  C6    U A  30     -14.804  10.894  41.145  1.00  0.00     0.104 A 
ATOM    721  C2    U A  30     -13.662   9.371  39.682  1.00  0.00     0.331 A 
ATOM    722  O2    U A  30     -12.951   8.406  39.470  1.00  0.00    -0.246 OA
ATOM    723  N3    U A  30     -14.195  10.118  38.663  1.00  0.00    -0.275 N 
ATOM    724  H3    U A  30     -13.960   9.826  37.726  1.00  0.00     0.173 HD
ATOM    725  C4    U A  30     -15.009  11.221  38.782  1.00  0.00     0.250 A 
ATOM    726  O4    U A  30     -15.409  11.788  37.766  1.00  0.00    -0.268 OA
ATOM    727  C5    U A  30     -15.308  11.596  40.127  1.00  0.00     0.092 A 
ATOM    728  C2'   U A  30     -11.995   9.359  42.401  1.00  0.00     0.199 C 
ATOM    729  O2'   U A  30     -11.407   8.234  43.029  1.00  0.00    -0.388 OA
ATOM    730 'HO2   U A  30     -10.840   8.570  43.723  1.00  0.00     0.210 HD
ATOM    731  C3'   U A  30     -12.155  10.517  43.377  1.00  0.00     0.198 C 
ATOM    732  O3'   U A  30     -10.999  10.713  44.186  1.00  0.00    -0.279 OA
ATOM    733  P     C A  31      -9.863  11.751  43.716  1.00  0.00     0.408 P 
ATOM    734  OP1   C A  31      -8.809  11.761  44.762  1.00  0.00    -0.624 OA
ATOM    735  OP2   C A  31     -10.523  13.023  43.327  1.00  0.00    -0.624 OA
ATOM    736  O5'   C A  31      -9.255  11.087  42.401  1.00  0.00    -0.287 OA
ATOM    737  C5'   C A  31      -8.585   9.829  42.455  1.00  0.00     0.216 C 
ATOM    738  C4'   C A  31      -8.202   9.381  41.064  1.00  0.00     0.180 C 
ATOM    739  O4'   C A  31      -9.405   9.186  40.276  1.00  0.00    -0.353 OA
ATOM    740  C1'   C A  31      -9.145   9.522  38.923  1.00  0.00     0.264 C 
ATOM    741  N1    C A  31     -10.091  10.574  38.513  1.00  0.00    -0.278 N 
ATOM    742  C6    C A  31     -10.769  11.313  39.443  1.00  0.00     0.102 A 
ATOM    743  C2    C A  31     -10.288  10.807  37.149  1.00  0.00     0.352 A 
ATOM    744  O2    C A  31      -9.663  10.124  36.326  1.00  0.00    -0.244 OA
ATOM    745  N3    C A  31     -11.153  11.768  36.760  1.00  0.00    -0.177 NA
ATOM    746  C4    C A  31     -11.811  12.482  37.673  1.00  0.00     0.128 A 
ATOM    747  N4    C A  31     -12.655  13.417  37.240  1.00  0.00    -0.384 N 
ATOM    748  H41   C A  31     -13.175  13.981  37.897  1.00  0.00     0.157 HD
ATOM    749  H42   C A  31     -12.774  13.558  36.246  1.00  0.00     0.157 HD
ATOM    750  C5    C A  31     -11.632  12.268  39.071  1.00  0.00     0.067 A 
ATOM    751  C2'   C A  31      -7.679   9.947  38.821  1.00  0.00     0.199 C 
ATOM    752  O2'   C A  31      -6.903   8.820  38.464  1.00  0.00    -0.388 OA
ATOM    753 'HO2   C A  31      -6.164   8.790  39.072  1.00  0.00     0.210 HD
ATOM    754  C3'   C A  31      -7.391  10.380  40.254  1.00  0.00     0.198 C 
ATOM    755  O3'   C A  31      -6.004  10.316  40.574  1.00  0.00    -0.279 OA
ATOM    756  P     C A  32      -5.074  11.611  40.361  1.00  0.00     0.408 P 
ATOM    757  OP1   C A  32      -3.746  11.302  40.948  1.00  0.00    -0.624 OA
ATOM    758  OP2   C A  32      -5.820  12.809  40.824  1.00  0.00    -0.624 OA
ATOM    759  O5'   C A  32      -4.908  11.711  38.779  1.00  0.00    -0.287 OA
ATOM    760  C5'   C A  32      -4.155  10.738  38.056  1.00  0.00     0.216 C 
ATOM    761  C4'   C A  32      -4.026  11.148  36.608  1.00  0.00     0.180 C 
ATOM    762  O4'   C A  32      -5.313  10.987  35.953  1.00  0.00    -0.353 OA
ATOM    763  C1'   C A  32      -5.488  12.011  34.990  1.00  0.00     0.264 C 
ATOM    764  N1    C A  32      -6.695  12.778  35.342  1.00  0.00    -0.278 N 
ATOM    765  C6    C A  32      -7.105  12.884  36.642  1.00  0.00     0.102 A 
ATOM    766  C2    C A  32      -7.417  13.400  34.323  1.00  0.00     0.352 A 
ATOM    767  O2    C A  32      -7.024  13.289  33.154  1.00  0.00    -0.244 OA
ATOM    768  N3    C A  32      -8.526  14.108  34.634  1.00  0.00    -0.177 NA
ATOM    769  C4    C A  32      -8.921  14.202  35.904  1.00  0.00     0.128 A 
ATOM    770  N4    C A  32     -10.023  14.906  36.161  1.00  0.00    -0.384 N 
ATOM    771  H41   C A  32     -10.358  15.003  37.107  1.00  0.00     0.157 HD
ATOM    772  H42   C A  32     -10.519  15.348  35.398  1.00  0.00     0.157 HD
ATOM    773  C5    C A  32      -8.203  13.579  36.966  1.00  0.00     0.067 A 
ATOM    774  C2'   C A  32      -4.210  12.853  34.966  1.00  0.00     0.199 C 
ATOM    775  O2'   C A  32      -3.342  12.328  33.979  1.00  0.00    -0.388 OA
ATOM    776 'HO2   C A  32      -2.480  12.241  34.387  1.00  0.00     0.210 HD
ATOM    777  C3'   C A  32      -3.663  12.606  36.367  1.00  0.00     0.198 C 
ATOM    778  O3'   C A  32      -2.255  12.813  36.445  1.00  0.00    -0.279 OA
ATOM    779  P     U A  33      -1.682  14.272  36.807  1.00  0.00     0.408 P 
ATOM    780  OP1   U A  33      -0.201  14.177  36.814  1.00  0.00    -0.624 OA
ATOM    781  OP2   U A  33      -2.392  14.769  38.013  1.00  0.00    -0.624 OA
ATOM    782  O5'   U A  33      -2.120  15.175  35.569  1.00  0.00    -0.287 OA
ATOM    783  C5'   U A  33      -1.564  14.965  34.271  1.00  0.00     0.216 C 
ATOM    784  C4'   U A  33      -1.886  16.137  33.373  1.00  0.00     0.180 C 
ATOM    785  O4'   U A  33      -3.249  15.996  32.891  1.00  0.00    -0.353 OA
ATOM    786  C1'   U A  33      -3.872  17.266  32.837  1.00  0.00     0.264 C 
ATOM    787  N1    U A  33      -5.041  17.242  33.729  1.00  0.00    -0.280 N 
ATOM    788  C6    U A  33      -4.989  16.622  34.957  1.00  0.00     0.104 A 
ATOM    789  C2    U A  33      -6.199  17.861  33.291  1.00  0.00     0.331 A 
ATOM    790  O2    U A  33      -6.285  18.420  32.213  1.00  0.00    -0.246 OA
ATOM    791  N3    U A  33      -7.255  17.798  34.166  1.00  0.00    -0.275 N 
ATOM    792  H3    U A  33      -8.106  18.253  33.873  1.00  0.00     0.173 HD
ATOM    793  C4    U A  33      -7.272  17.194  35.402  1.00  0.00     0.250 A 
ATOM    794  O4    U A  33      -8.306  17.216  36.070  1.00  0.00    -0.268 OA
ATOM    795  C5    U A  33      -6.038  16.580  35.782  1.00  0.00     0.092 A 
ATOM    796  C2'   U A  33      -2.829  18.320  33.213  1.00  0.00     0.199 C 
ATOM    797  O2'   U A  33      -2.216  18.795  32.028  1.00  0.00    -0.388 OA
ATOM    798 'HO2   U A  33      -1.281  18.600  32.105  1.00  0.00     0.210 HD
ATOM    799  C3'   U A  33      -1.849  17.501  34.046  1.00  0.00     0.198 C 
ATOM    800  O3'   U A  33      -0.530  18.041  34.031  1.00  0.00    -0.279 OA
ATOM    801  P     U A  34      -0.186  19.345  34.908  1.00  0.00     0.408 P 
ATOM    802  OP1   U A  34       0.925  18.977  35.821  1.00  0.00    -0.624 OA
ATOM    803  OP2   U A  34      -1.448  19.889  35.472  1.00  0.00    -0.624 OA
ATOM    804  O5'   U A  34       0.384  20.381  33.841  1.00  0.00    -0.287 OA
ATOM    805  C5'   U A  34      -0.489  21.093  32.962  1.00  0.00     0.216 C 
ATOM    806  C4'   U A  34      -0.493  22.566  33.308  1.00  0.00     0.180 C 
ATOM    807  O4'   U A  34       0.026  22.737  34.657  1.00  0.00    -0.353 OA
ATOM    808  C1'   U A  34       0.902  23.849  34.697  1.00  0.00     0.264 C 
ATOM    809  N1    U A  34       2.262  23.361  34.975  1.00  0.00    -0.280 N 
ATOM    810  C6    U A  34       2.576  22.023  34.878  1.00  0.00     0.104 A 
ATOM    811  C2    U A  34       3.218  24.292  35.334  1.00  0.00     0.331 A 
ATOM    812  O2    U A  34       2.980  25.482  35.432  1.00  0.00    -0.246 OA
ATOM    813  N3    U A  34       4.466  23.778  35.577  1.00  0.00    -0.275 N 
ATOM    814  H3    U A  34       5.180  24.440  35.839  1.00  0.00     0.173 HD
ATOM    815  C4    U A  34       4.849  22.459  35.499  1.00  0.00     0.250 A 
ATOM    816  O4    U A  34       6.014  22.153  35.746  1.00  0.00    -0.268 OA
ATOM    817  C5    U A  34       3.805  21.559  35.123  1.00  0.00     0.092 A 
ATOM    818  C2'   U A  34       0.772  24.583  33.364  1.00  0.00     0.199 C 
ATOM    819  O2'   U A  34      -0.276  25.529  33.466  1.00  0.00    -0.388 OA
ATOM    820 'HO2   U A  34      -0.947  25.275  32.830  1.00  0.00     0.210 HD
ATOM    821  C3'   U A  34       0.393  23.440  32.430  1.00  0.00     0.198 C 
ATOM    822  O3'   U A  34      -0.308  23.897  31.277  1.00  0.00    -0.279 OA
ATOM    823  P     A A  35       0.513  24.383  29.982  1.00  0.00     0.408 P 
ATOM    824  OP1   A A  35       0.745  23.186  29.134  1.00  0.00    -0.624 OA
ATOM    825  OP2   A A  35       1.671  25.195  30.435  1.00  0.00    -0.624 OA
ATOM    826  O5'   A A  35      -0.503  25.344  29.218  1.00  0.00    -0.287 OA
ATOM    827  C5'   A A  35      -1.886  25.012  29.105  1.00  0.00     0.216 C 
ATOM    828  C4'   A A  35      -2.689  26.241  28.748  1.00  0.00     0.180 C 
ATOM    829  O4'   A A  35      -2.570  27.201  29.837  1.00  0.00    -0.353 OA
ATOM    830  C1'   A A  35      -1.941  28.377  29.368  1.00  0.00     0.262 C 
ATOM    831  N9    A A  35      -1.033  28.862  30.408  1.00  0.00    -0.294 N 
ATOM    832  C4    A A  35      -0.946  30.151  30.874  1.00  0.00     0.167 A 
ATOM    833  N3    A A  35      -1.668  31.213  30.473  1.00  0.00    -0.222 NA
ATOM    834  C2    A A  35      -1.312  32.303  31.147  1.00  0.00     0.237 A 
ATOM    835  N1    A A  35      -0.385  32.443  32.105  1.00  0.00    -0.222 NA
ATOM    836  C6    A A  35       0.322  31.357  32.482  1.00  0.00     0.155 A 
ATOM    837  N6    A A  35       1.248  31.499  33.433  1.00  0.00    -0.382 N 
ATOM    838  H61   A A  35       1.789  30.700  33.730  1.00  0.00     0.157 HD
ATOM    839  H62   A A  35       1.407  32.404  33.849  1.00  0.00     0.157 HD
ATOM    840  C5    A A  35       0.040  30.137  31.843  1.00  0.00     0.149 A 
ATOM    841  N7    A A  35       0.566  28.861  31.988  1.00  0.00    -0.236 NA
ATOM    842  C8    A A  35      -0.102  28.143  31.117  1.00  0.00     0.214 A 
ATOM    843  C2'   A A  35      -1.250  28.011  28.058  1.00  0.00     0.199 C 
ATOM    844  O2'   A A  35      -1.190  29.162  27.236  1.00  0.00    -0.388 OA
ATOM    845 'HO2   A A  35      -2.078  29.312  26.910  1.00  0.00     0.210 HD
ATOM    846  C3'   A A  35      -2.224  26.982  27.498  1.00  0.00     0.198 C 
ATOM    847  O3'   A A  35      -3.313  27.597  26.813  1.00  0.00    -0.279 OA
ATOM    848  P     G A  36      -4.148  26.764  25.717  1.00  0.00     0.408 P 
ATOM    849  OP1   G A  36      -3.440  25.483  25.464  1.00  0.00    -0.624 OA
ATOM    850  OP2   G A  36      -4.437  27.677  24.580  1.00  0.00    -0.624 OA
ATOM    851  O5'   G A  36      -5.528  26.443  26.447  1.00  0.00    -0.287 OA
ATOM    852  C5'   G A  36      -5.819  25.133  26.939  1.00  0.00     0.216 C 
ATOM    853  C4'   G A  36      -6.804  25.213  28.082  1.00  0.00     0.180 C 
ATOM    854  O4'   G A  36      -6.160  25.886  29.198  1.00  0.00    -0.353 OA
ATOM    855  C1'   G A  36      -7.048  26.831  29.767  1.00  0.00     0.262 C 
ATOM    856  N9    G A  36      -6.525  28.169  29.504  1.00  0.00    -0.293 N 
ATOM    857  C4    G A  36      -7.058  29.359  29.943  1.00  0.00     0.187 A 
ATOM    858  N3    G A  36      -8.168  29.501  30.696  1.00  0.00    -0.044 NA
ATOM    859  C2    G A  36      -8.429  30.769  30.955  1.00  0.00     0.703 A 
ATOM    860  N2    G A  36      -9.501  31.089  31.686  1.00  0.00    -0.233 N 
ATOM    861  H21   G A  36     -10.098  30.351  32.028  1.00  0.00     0.174 HD
ATOM    862  H22   G A  36      -9.718  32.055  31.881  1.00  0.00     0.174 HD
ATOM    863  N1    G A  36      -7.661  31.817  30.517  1.00  0.00    -0.153 N 
ATOM    864  H1    G A  36      -7.946  32.751  30.770  1.00  0.00     0.187 HD
ATOM    865  C6    G A  36      -6.513  31.696  29.743  1.00  0.00     0.292 A 
ATOM    866  O6    G A  36      -5.891  32.710  29.402  1.00  0.00    -0.265 OA
ATOM    867  C5    G A  36      -6.220  30.338  29.451  1.00  0.00     0.173 A 
ATOM    868  N7    G A  36      -5.184  29.778  28.716  1.00  0.00    -0.234 NA
ATOM    869  C8    G A  36      -5.406  28.493  28.776  1.00  0.00     0.214 A 
ATOM    870  C2'   G A  36      -8.431  26.575  29.170  1.00  0.00     0.199 C 
ATOM    871  O2'   G A  36      -9.090  25.600  29.958  1.00  0.00    -0.388 OA
ATOM    872 'HO2   G A  36      -9.655  25.101  29.367  1.00  0.00     0.210 HD
ATOM    873  C3'   G A  36      -8.066  26.022  27.798  1.00  0.00     0.198 C 
ATOM    874  O3'   G A  36      -9.098  25.202  27.255  1.00  0.00    -0.279 OA
ATOM    875  P     C A  37     -10.175  25.837  26.244  1.00  0.00     0.408 P 
ATOM    876  OP1   C A  37     -11.274  24.852  26.076  1.00  0.00    -0.624 OA
ATOM    877  OP2   C A  37      -9.450  26.336  25.048  1.00  0.00    -0.624 OA
ATOM    878  O5'   C A  37     -10.752  27.096  27.033  1.00  0.00    -0.287 OA
ATOM    879  C5'   C A  37     -11.668  26.934  28.117  1.00  0.00     0.216 C 
ATOM    880  C4'   C A  37     -12.226  28.275  28.531  1.00  0.00     0.180 C 
ATOM    881  O4'   C A  37     -11.182  29.029  29.205  1.00  0.00    -0.353 OA
ATOM    882  C1'   C A  37     -11.230  30.385  28.797  1.00  0.00     0.264 C 
ATOM    883  N1    C A  37      -9.984  30.697  28.079  1.00  0.00    -0.278 N 
ATOM    884  C6    C A  37      -9.340  29.741  27.344  1.00  0.00     0.102 A 
ATOM    885  C2    C A  37      -9.465  31.992  28.160  1.00  0.00     0.352 A 
ATOM    886  O2    C A  37     -10.067  32.838  28.837  1.00  0.00    -0.244 OA
ATOM    887  N3    C A  37      -8.322  32.288  27.503  1.00  0.00    -0.177 NA
ATOM    888  C4    C A  37      -7.699  31.348  26.791  1.00  0.00     0.128 A 
ATOM    889  N4    C A  37      -6.572  31.685  26.167  1.00  0.00    -0.384 N 
ATOM    890  H41   C A  37      -6.070  31.003  25.619  1.00  0.00     0.157 HD
ATOM    891  H42   C A  37      -6.221  32.628  26.254  1.00  0.00     0.157 HD
ATOM    892  C5    C A  37      -8.205  30.020  26.690  1.00  0.00     0.067 A 
ATOM    893  C2'   C A  37     -12.492  30.570  27.956  1.00  0.00     0.199 C 
ATOM    894  O2'   C A  37     -13.562  30.921  28.814  1.00  0.00    -0.388 OA
ATOM    895 'HO2   C A  37     -14.126  30.149  28.883  1.00  0.00     0.210 HD
ATOM    896  C3'   C A  37     -12.679  29.169  27.385  1.00  0.00     0.198 C 
ATOM    897  O3'   C A  37     -14.033  28.905  27.029  1.00  0.00    -0.279 OA
ATOM    898  P     A A  38     -14.526  29.154  25.520  1.00  0.00     0.408 P 
ATOM    899  OP1   A A  38     -13.856  28.141  24.664  1.00  0.00    -0.624 OA
ATOM    900  OP2   A A  38     -14.371  30.597  25.206  1.00  0.00    -0.624 OA
ATOM    901  O5'   A A  38     -16.083  28.813  25.566  1.00  0.00    -0.287 OA
ATOM    902  C5'   A A  38     -16.882  29.171  26.694  1.00  0.00     0.216 C 
ATOM    903  C4'   A A  38     -17.336  27.930  27.429  1.00  0.00     0.180 C 
ATOM    904  O4'   A A  38     -18.201  27.162  26.549  1.00  0.00    -0.353 OA
ATOM    905  C1'   A A  38     -17.593  25.924  26.236  1.00  0.00     0.262 C 
ATOM    906  N9    A A  38     -17.793  25.664  24.811  1.00  0.00    -0.294 N 
ATOM    907  C4    A A  38     -18.600  24.696  24.264  1.00  0.00     0.167 A 
ATOM    908  N3    A A  38     -19.360  23.801  24.919  1.00  0.00    -0.222 NA
ATOM    909  C2    A A  38     -20.007  23.017  24.060  1.00  0.00     0.237 A 
ATOM    910  N1    A A  38     -19.983  23.025  22.721  1.00  0.00    -0.222 NA
ATOM    911  C6    A A  38     -19.209  23.937  22.095  1.00  0.00     0.155 A 
ATOM    912  N6    A A  38     -19.185  23.944  20.762  1.00  0.00    -0.382 N 
ATOM    913  H61   A A  38     -18.612  24.618  20.275  1.00  0.00     0.157 HD
ATOM    914  H62   A A  38     -19.735  23.275  20.245  1.00  0.00     0.157 HD
ATOM    915  C5    A A  38     -18.472  24.828  22.893  1.00  0.00     0.149 A 
ATOM    916  N7    A A  38     -17.599  25.862  22.580  1.00  0.00    -0.236 NA
ATOM    917  C8    A A  38     -17.225  26.322  23.748  1.00  0.00     0.214 A 
ATOM    918  C2'   A A  38     -16.128  26.026  26.650  1.00  0.00     0.199 C 
ATOM    919  O2'   A A  38     -15.678  24.742  27.041  1.00  0.00    -0.388 OA
ATOM    920 'HO2   A A  38     -14.937  24.865  27.638  1.00  0.00     0.210 HD
ATOM    921  C3'   A A  38     -16.224  26.971  27.843  1.00  0.00     0.198 C 
ATOM    922  O3'   A A  38     -16.552  26.292  29.053  1.00  0.00    -0.279 OA
ATOM    923  P     U A  39     -15.395  25.941  30.114  1.00  0.00     0.408 P 
ATOM    924  OP1   U A  39     -15.938  24.909  31.034  1.00  0.00    -0.624 OA
ATOM    925  OP2   U A  39     -14.873  27.216  30.669  1.00  0.00    -0.624 OA
ATOM    926  O5'   U A  39     -14.249  25.274  29.228  1.00  0.00    -0.287 OA
ATOM    927  C5'   U A  39     -13.460  24.197  29.732  1.00  0.00     0.216 C 
ATOM    928  C4'   U A  39     -12.624  23.602  28.622  1.00  0.00     0.180 C 
ATOM    929  O4'   U A  39     -11.218  23.819  28.925  1.00  0.00    -0.353 OA
ATOM    930  C1'   U A  39     -10.469  22.667  28.573  1.00  0.00     0.264 C 
ATOM    931  N1    U A  39      -9.914  22.082  29.802  1.00  0.00    -0.280 N 
ATOM    932  C6    U A  39     -10.640  22.052  30.970  1.00  0.00     0.104 A 
ATOM    933  C2    U A  39      -8.636  21.556  29.744  1.00  0.00     0.331 A 
ATOM    934  O2    U A  39      -7.959  21.568  28.731  1.00  0.00    -0.246 OA
ATOM    935  N3    U A  39      -8.178  21.015  30.918  1.00  0.00    -0.275 N 
ATOM    936  H3    U A  39      -7.249  20.622  30.898  1.00  0.00     0.173 HD
ATOM    937  C4    U A  39      -8.850  20.948  32.116  1.00  0.00     0.250 A 
ATOM    938  O4    U A  39      -8.307  20.419  33.086  1.00  0.00    -0.268 OA
ATOM    939  C5    U A  39     -10.161  21.516  32.096  1.00  0.00     0.092 A 
ATOM    940  C2'   U A  39     -11.409  21.728  27.817  1.00  0.00     0.199 C 
ATOM    941  O2'   U A  39     -11.371  22.063  26.442  1.00  0.00    -0.388 OA
ATOM    942 'HO2   U A  39     -11.724  22.951  26.358  1.00  0.00     0.210 HD
ATOM    943  C3'   U A  39     -12.750  22.095  28.443  1.00  0.00     0.198 C 
ATOM    944  O3'   U A  39     -13.853  21.752  27.609  1.00  0.00    -0.279 OA
ATOM    945  P     G A  40     -14.658  20.383  27.870  1.00  0.00     0.408 P 
ATOM    946  OP1   G A  40     -15.764  20.320  26.879  1.00  0.00    -0.624 OA
ATOM    947  OP2   G A  40     -14.966  20.292  29.320  1.00  0.00    -0.624 OA
ATOM    948  O5'   G A  40     -13.607  19.239  27.514  1.00  0.00    -0.287 OA
ATOM    949  C5'   G A  40     -13.232  18.982  26.162  1.00  0.00     0.216 C 
ATOM    950  C4'   G A  40     -11.980  18.138  26.117  1.00  0.00     0.180 C 
ATOM    951  O4'   G A  40     -11.060  18.590  27.146  1.00  0.00    -0.353 OA
ATOM    952  C1'   G A  40     -10.353  17.481  27.675  1.00  0.00     0.262 C 
ATOM    953  N9    G A  40     -10.630  17.395  29.106  1.00  0.00    -0.293 N 
ATOM    954  C4    G A  40     -10.007  16.567  30.006  1.00  0.00     0.187 A 
ATOM    955  N3    G A  40      -9.025  15.686  29.723  1.00  0.00    -0.044 NA
ATOM    956  C2    G A  40      -8.625  15.031  30.796  1.00  0.00     0.703 A 
ATOM    957  N2    G A  40      -7.657  14.118  30.691  1.00  0.00    -0.233 N 
ATOM    958  H21   G A  40      -7.242  13.938  29.789  1.00  0.00     0.174 HD
ATOM    959  H22   G A  40      -7.342  13.613  31.509  1.00  0.00     0.174 HD
ATOM    960  N1    G A  40      -9.145  15.223  32.050  1.00  0.00    -0.153 N 
ATOM    961  H1    G A  40      -8.767  14.669  32.804  1.00  0.00     0.187 HD
ATOM    962  C6    G A  40     -10.156  16.121  32.368  1.00  0.00     0.292 A 
ATOM    963  O6    G A  40     -10.552  16.214  33.536  1.00  0.00    -0.265 OA
ATOM    964  C5    G A  40     -10.598  16.835  31.223  1.00  0.00     0.173 A 
ATOM    965  N7    G A  40     -11.574  17.815  31.091  1.00  0.00    -0.234 NA
ATOM    966  C8    G A  40     -11.556  18.115  29.821  1.00  0.00     0.214 A 
ATOM    967  C2'   G A  40     -10.790  16.239  26.898  1.00  0.00     0.199 C 
ATOM    968  O2'   G A  40      -9.909  16.051  25.807  1.00  0.00    -0.388 OA
ATOM    969 'HO2   G A  40     -10.457  15.893  25.038  1.00  0.00     0.210 HD
ATOM    970  C3'   G A  40     -12.175  16.659  26.420  1.00  0.00     0.198 C 
ATOM    971  O3'   G A  40     -12.594  15.933  25.267  1.00  0.00    -0.279 OA
ATOM    972  P     G A  41     -13.367  14.533  25.440  1.00  0.00     0.408 P 
ATOM    973  OP1   G A  41     -13.506  13.936  24.088  1.00  0.00    -0.624 OA
ATOM    974  OP2   G A  41     -14.580  14.767  26.265  1.00  0.00    -0.624 OA
ATOM    975  O5'   G A  41     -12.356  13.633  26.281  1.00  0.00    -0.287 OA
ATOM    976  C5'   G A  41     -11.145  13.149  25.701  1.00  0.00     0.216 C 
ATOM    977  C4'   G A  41     -10.529  12.090  26.586  1.00  0.00     0.180 C 
ATOM    978  O4'   G A  41     -10.054  12.701  27.809  1.00  0.00    -0.353 OA
ATOM    979  C1'   G A  41     -10.078  11.743  28.851  1.00  0.00     0.262 C 
ATOM    980  N9    G A  41     -10.734  12.340  30.010  1.00  0.00    -0.293 N 
ATOM    981  C4    G A  41     -10.573  11.962  31.321  1.00  0.00     0.187 A 
ATOM    982  N3    G A  41      -9.772  10.973  31.768  1.00  0.00    -0.044 NA
ATOM    983  C2    G A  41      -9.829  10.848  33.081  1.00  0.00     0.703 A 
ATOM    984  N2    G A  41      -9.095   9.912  33.691  1.00  0.00    -0.233 N 
ATOM    985  H21   G A  41      -8.504   9.308  33.139  1.00  0.00     0.174 HD
ATOM    986  H22   G A  41      -9.134   9.808  34.695  1.00  0.00     0.174 HD
ATOM    987  N1    G A  41     -10.607  11.630  33.895  1.00  0.00    -0.153 N 
ATOM    988  H1    G A  41     -10.575  11.449  34.886  1.00  0.00     0.187 HD
ATOM    989  C6    G A  41     -11.439  12.654  33.460  1.00  0.00     0.292 A 
ATOM    990  O6    G A  41     -12.101  13.300  34.282  1.00  0.00    -0.265 OA
ATOM    991  C5    G A  41     -11.390  12.803  32.048  1.00  0.00     0.173 A 
ATOM    992  N7    G A  41     -12.053  13.691  31.210  1.00  0.00    -0.234 NA
ATOM    993  C8    G A  41     -11.633  13.378  30.015  1.00  0.00     0.214 A 
ATOM    994  C2'   G A  41     -10.779  10.485  28.329  1.00  0.00     0.199 C 
ATOM    995  O2'   G A  41      -9.793   9.524  28.000  1.00  0.00    -0.388 OA
ATOM    996 'HO2   G A  41     -10.214   8.665  28.055  1.00  0.00     0.210 HD
ATOM    997  C3'   G A  41     -11.479  11.008  27.075  1.00  0.00     0.198 C 
ATOM    998  O3'   G A  41     -11.660   9.997  26.087  1.00  0.00    -0.279 OA
ATOM    999  P     A A  42     -12.737   8.827  26.327  1.00  0.00     0.408 P 
ATOM   1000  OP1   A A  42     -12.822   8.045  25.068  1.00  0.00    -0.624 OA
ATOM   1001  OP2   A A  42     -13.967   9.428  26.901  1.00  0.00    -0.624 OA
ATOM   1002  O5'   A A  42     -12.060   7.901  27.434  1.00  0.00    -0.287 OA
ATOM   1003  C5'   A A  42     -12.827   7.343  28.499  1.00  0.00     0.216 C 
ATOM   1004  C4'   A A  42     -11.912   6.830  29.585  1.00  0.00     0.180 C 
ATOM   1005  O4'   A A  42     -11.309   7.969  30.260  1.00  0.00    -0.353 OA
ATOM   1006  C1'   A A  42     -11.316   7.756  31.660  1.00  0.00     0.262 C 
ATOM   1007  N9    A A  42     -12.230   8.723  32.267  1.00  0.00    -0.294 N 
ATOM   1008  C4    A A  42     -12.508   8.856  33.606  1.00  0.00     0.167 A 
ATOM   1009  N3    A A  42     -12.005   8.131  34.620  1.00  0.00    -0.222 NA
ATOM   1010  C2    A A  42     -12.499   8.546  35.785  1.00  0.00     0.237 A 
ATOM   1011  N1    A A  42     -13.374   9.529  36.033  1.00  0.00    -0.222 NA
ATOM   1012  C6    A A  42     -13.859  10.239  34.990  1.00  0.00     0.155 A 
ATOM   1013  N6    A A  42     -14.729  11.218  35.236  1.00  0.00    -0.382 N 
ATOM   1014  H61   A A  42     -15.103  11.761  34.472  1.00  0.00     0.157 HD
ATOM   1015  H62   A A  42     -15.014  11.419  36.186  1.00  0.00     0.157 HD
ATOM   1016  C5    A A  42     -13.413   9.897  33.702  1.00  0.00     0.149 A 
ATOM   1017  N7    A A  42     -13.706  10.410  32.446  1.00  0.00    -0.236 NA
ATOM   1018  C8    A A  42     -12.982   9.681  31.632  1.00  0.00     0.214 A 
ATOM   1019  C2'   A A  42     -11.705   6.297  31.896  1.00  0.00     0.199 C 
ATOM   1020  O2'   A A  42     -10.534   5.504  31.857  1.00  0.00    -0.388 OA
ATOM   1021 'HO2   A A  42     -10.761   4.695  31.396  1.00  0.00     0.210 HD
ATOM   1022  C3'   A A  42     -12.595   6.030  30.688  1.00  0.00     0.198 C 
ATOM   1023  O3'   A A  42     -12.664   4.644  30.360  1.00  0.00    -0.279 OA
ATOM   1024  P     A A  43     -13.979   3.796  30.738  1.00  0.00     0.408 P 
ATOM   1025  OP1   A A  43     -13.822   2.445  30.140  1.00  0.00    -0.624 OA
ATOM   1026  OP2   A A  43     -15.175   4.610  30.402  1.00  0.00    -0.624 OA
ATOM   1027  O5'   A A  43     -13.903   3.650  32.323  1.00  0.00    -0.287 OA
ATOM   1028  C5'   A A  43     -12.897   2.849  32.939  1.00  0.00     0.216 C 
ATOM   1029  C4'   A A  43     -13.133   2.767  34.429  1.00  0.00     0.180 C 
ATOM   1030  O4'   A A  43     -12.792   4.046  35.031  1.00  0.00    -0.353 OA
ATOM   1031  C1'   A A  43     -13.726   4.360  36.050  1.00  0.00     0.262 C 
ATOM   1032  N9    A A  43     -14.468   5.552  35.645  1.00  0.00    -0.294 N 
ATOM   1033  C4    A A  43     -15.218   6.359  36.466  1.00  0.00     0.167 A 
ATOM   1034  N3    A A  43     -15.415   6.220  37.788  1.00  0.00    -0.222 NA
ATOM   1035  C2    A A  43     -16.203   7.188  38.249  1.00  0.00     0.237 A 
ATOM   1036  N1    A A  43     -16.774   8.203  37.588  1.00  0.00    -0.222 NA
ATOM   1037  C6    A A  43     -16.556   8.314  36.259  1.00  0.00     0.155 A 
ATOM   1038  N6    A A  43     -17.125   9.324  35.603  1.00  0.00    -0.382 N 
ATOM   1039  H61   A A  43     -16.974   9.422  34.609  1.00  0.00     0.157 HD
ATOM   1040  H62   A A  43     -17.707   9.988  36.094  1.00  0.00     0.157 HD
ATOM   1041  C5    A A  43     -15.737   7.347  35.649  1.00  0.00     0.149 A 
ATOM   1042  N7    A A  43     -15.318   7.171  34.338  1.00  0.00    -0.236 NA
ATOM   1043  C8    A A  43     -14.571   6.095  34.389  1.00  0.00     0.214 A 
ATOM   1044  C2'   A A  43     -14.613   3.132  36.248  1.00  0.00     0.199 C 
ATOM   1045  O2'   A A  43     -14.007   2.284  37.205  1.00  0.00    -0.388 OA
ATOM   1046 'HO2   A A  43     -14.664   2.127  37.885  1.00  0.00     0.210 HD
ATOM   1047  C3'   A A  43     -14.575   2.520  34.853  1.00  0.00     0.198 C 
ATOM   1048  O3'   A A  43     -14.895   1.132  34.858  1.00  0.00    -0.279 OA
ATOM   1049  P     G A  44     -16.435   0.667  34.878  1.00  0.00     0.408 P 
ATOM   1050  OP1   G A  44     -16.451  -0.816  34.780  1.00  0.00    -0.624 OA
ATOM   1051  OP2   G A  44     -17.185   1.474  33.881  1.00  0.00    -0.624 OA
ATOM   1052  O5'   G A  44     -16.946   1.074  36.332  1.00  0.00    -0.287 OA
ATOM   1053  C5'   G A  44     -16.575   0.312  37.480  1.00  0.00     0.216 C 
ATOM   1054  C4'   G A  44     -17.011   1.024  38.742  1.00  0.00     0.180 C 
ATOM   1055  O4'   G A  44     -16.690   2.435  38.633  1.00  0.00    -0.353 OA
ATOM   1056  C1'   G A  44     -17.661   3.198  39.330  1.00  0.00     0.262 C 
ATOM   1057  N9    G A  44     -18.255   4.154  38.400  1.00  0.00    -0.293 N 
ATOM   1058  C4    G A  44     -19.059   5.220  38.726  1.00  0.00     0.187 A 
ATOM   1059  N3    G A  44     -19.444   5.571  39.971  1.00  0.00    -0.044 NA
ATOM   1060  C2    G A  44     -20.220   6.641  39.963  1.00  0.00     0.703 A 
ATOM   1061  N2    G A  44     -20.697   7.123  41.113  1.00  0.00    -0.233 N 
ATOM   1062  H21   G A  44     -20.458   6.662  41.980  1.00  0.00     0.174 HD
ATOM   1063  H22   G A  44     -21.296   7.937  41.116  1.00  0.00     0.174 HD
ATOM   1064  N1    G A  44     -20.586   7.316  38.828  1.00  0.00    -0.153 N 
ATOM   1065  H1    G A  44     -21.180   8.123  38.935  1.00  0.00     0.187 HD
ATOM   1066  C6    G A  44     -20.200   6.975  37.536  1.00  0.00     0.292 A 
ATOM   1067  O6    G A  44     -20.588   7.655  36.579  1.00  0.00    -0.265 OA
ATOM   1068  C5    G A  44     -19.369   5.825  37.527  1.00  0.00     0.173 A 
ATOM   1069  N7    G A  44     -18.774   5.154  36.467  1.00  0.00    -0.234 NA
ATOM   1070  C8    G A  44     -18.127   4.171  37.032  1.00  0.00     0.214 A 
ATOM   1071  C2'   G A  44     -18.673   2.223  39.936  1.00  0.00     0.199 C 
ATOM   1072  O2'   G A  44     -18.272   1.929  41.261  1.00  0.00    -0.388 OA
ATOM   1073 'HO2   G A  44     -18.426   0.994  41.396  1.00  0.00     0.210 HD
ATOM   1074  C3'   G A  44     -18.505   1.011  39.026  1.00  0.00     0.198 C 
ATOM   1075  O3'   G A  44     -18.912  -0.203  39.656  1.00  0.00    -0.279 OA
ATOM   1076  P     A A  45     -20.440  -0.693  39.539  1.00  0.00     0.408 P 
ATOM   1077  OP1   A A  45     -20.502  -2.069  40.098  1.00  0.00    -0.624 OA
ATOM   1078  OP2   A A  45     -20.914  -0.443  38.154  1.00  0.00    -0.624 OA
ATOM   1079  O5'   A A  45     -21.234   0.277  40.523  1.00  0.00    -0.287 OA
ATOM   1080  C5'   A A  45     -21.002   0.248  41.930  1.00  0.00     0.216 C 
ATOM   1081  C4'   A A  45     -21.754   1.373  42.606  1.00  0.00     0.180 C 
ATOM   1082  O4'   A A  45     -21.343   2.631  42.008  1.00  0.00    -0.353 OA
ATOM   1083  C1'   A A  45     -22.461   3.489  41.877  1.00  0.00     0.262 C 
ATOM   1084  N9    A A  45     -22.664   3.764  40.456  1.00  0.00    -0.294 N 
ATOM   1085  C4    A A  45     -23.211   4.906  39.922  1.00  0.00     0.167 A 
ATOM   1086  N3    A A  45     -23.665   5.979  40.590  1.00  0.00    -0.222 NA
ATOM   1087  C2    A A  45     -24.128   6.896  39.744  1.00  0.00     0.237 A 
ATOM   1088  N1    A A  45     -24.185   6.863  38.406  1.00  0.00    -0.222 NA
ATOM   1089  C6    A A  45     -23.719   5.768  37.767  1.00  0.00     0.155 A 
ATOM   1090  N6    A A  45     -23.774   5.736  36.436  1.00  0.00    -0.382 N 
ATOM   1091  H61   A A  45     -23.429   4.924  35.943  1.00  0.00     0.157 HD
ATOM   1092  H62   A A  45     -24.154   6.518  35.923  1.00  0.00     0.157 HD
ATOM   1093  C5    A A  45     -23.202   4.724  38.552  1.00  0.00     0.149 A 
ATOM   1094  N7    A A  45     -22.658   3.489  38.224  1.00  0.00    -0.236 NA
ATOM   1095  C8    A A  45     -22.357   2.961  39.386  1.00  0.00     0.214 A 
ATOM   1096  C2'   A A  45     -23.655   2.808  42.548  1.00  0.00     0.199 C 
ATOM   1097  O2'   A A  45     -23.711   3.222  43.900  1.00  0.00    -0.388 OA
ATOM   1098 'HO2   A A  45     -23.767   2.425  44.428  1.00  0.00     0.210 HD
ATOM   1099  C3'   A A  45     -23.267   1.338  42.438  1.00  0.00     0.198 C 
ATOM   1100  O3'   A A  45     -23.883   0.541  43.447  1.00  0.00    -0.279 OA
ATOM   1101  P     G A  46     -25.037  -0.507  43.048  1.00  0.00     0.408 P 
ATOM   1102  OP1   G A  46     -25.478  -1.171  44.302  1.00  0.00    -0.624 OA
ATOM   1103  OP2   G A  46     -24.548  -1.333  41.916  1.00  0.00    -0.624 OA
ATOM   1104  O5'   G A  46     -26.230   0.411  42.526  1.00  0.00    -0.287 OA
ATOM   1105  C5'   G A  46     -26.801   1.422  43.357  1.00  0.00     0.216 C 
ATOM   1106  C4'   G A  46     -27.695   2.325  42.540  1.00  0.00     0.180 C 
ATOM   1107  O4'   G A  46     -26.904   2.941  41.488  1.00  0.00    -0.353 OA
ATOM   1108  C1'   G A  46     -27.666   3.018  40.297  1.00  0.00     0.262 C 
ATOM   1109  N9    G A  46     -27.000   2.217  39.275  1.00  0.00    -0.293 N 
ATOM   1110  C4    G A  46     -26.810   2.564  37.959  1.00  0.00     0.187 A 
ATOM   1111  N3    G A  46     -27.205   3.716  37.376  1.00  0.00    -0.044 NA
ATOM   1112  C2    G A  46     -26.882   3.757  36.096  1.00  0.00     0.703 A 
ATOM   1113  N2    G A  46     -27.202   4.828  35.365  1.00  0.00    -0.233 N 
ATOM   1114  H21   G A  46     -27.690   5.596  35.804  1.00  0.00     0.174 HD
ATOM   1115  H22   G A  46     -26.962   4.869  34.386  1.00  0.00     0.174 HD
ATOM   1116  N1    G A  46     -26.223   2.751  35.437  1.00  0.00    -0.153 N 
ATOM   1117  H1    G A  46     -26.021   2.882  34.459  1.00  0.00     0.187 HD
ATOM   1118  C6    G A  46     -25.807   1.557  36.014  1.00  0.00     0.292 A 
ATOM   1119  O6    G A  46     -25.223   0.713  35.325  1.00  0.00    -0.265 OA
ATOM   1120  C5    G A  46     -26.147   1.497  37.391  1.00  0.00     0.173 A 
ATOM   1121  N7    G A  46     -25.920   0.500  38.331  1.00  0.00    -0.234 NA
ATOM   1122  C8    G A  46     -26.443   0.972  39.430  1.00  0.00     0.214 A 
ATOM   1123  C2'   G A  46     -29.085   2.547  40.620  1.00  0.00     0.199 C 
ATOM   1124  O2'   G A  46     -29.860   3.669  40.997  1.00  0.00    -0.388 OA
ATOM   1125 'HO2   G A  46     -30.401   3.389  41.735  1.00  0.00     0.210 HD
ATOM   1126  C3'   G A  46     -28.836   1.627  41.809  1.00  0.00     0.198 C 
ATOM   1127  O3'   G A  46     -29.985   1.497  42.643  1.00  0.00    -0.279 OA
ATOM   1128  P     G A  47     -30.659   0.052  42.863  1.00  0.00     0.408 P 
ATOM   1129  OP1   G A  47     -31.494   0.146  44.088  1.00  0.00    -0.624 OA
ATOM   1130  OP2   G A  47     -29.603  -0.989  42.777  1.00  0.00    -0.624 OA
ATOM   1131  O5'   G A  47     -31.635  -0.116  41.615  1.00  0.00    -0.287 OA
ATOM   1132  C5'   G A  47     -32.538   0.925  41.239  1.00  0.00     0.216 C 
ATOM   1133  C4'   G A  47     -32.865   0.827  39.767  1.00  0.00     0.180 C 
ATOM   1134  O4'   G A  47     -31.620   0.682  39.026  1.00  0.00    -0.353 OA
ATOM   1135  C1'   G A  47     -31.600  -0.567  38.364  1.00  0.00     0.262 C 
ATOM   1136  N9    G A  47     -30.255  -1.123  38.472  1.00  0.00    -0.293 N 
ATOM   1137  C4    G A  47     -29.302  -1.158  37.483  1.00  0.00     0.187 A 
ATOM   1138  N3    G A  47     -29.439  -0.677  36.230  1.00  0.00    -0.044 NA
ATOM   1139  C2    G A  47     -28.348  -0.858  35.509  1.00  0.00     0.703 A 
ATOM   1140  N2    G A  47     -28.313  -0.438  34.242  1.00  0.00    -0.233 N 
ATOM   1141  H21   G A  47     -29.126   0.014  33.851  1.00  0.00     0.174 HD
ATOM   1142  H22   G A  47     -27.483  -0.574  33.684  1.00  0.00     0.174 HD
ATOM   1143  N1    G A  47     -27.210  -1.464  35.977  1.00  0.00    -0.153 N 
ATOM   1144  H1    G A  47     -26.427  -1.554  35.349  1.00  0.00     0.187 HD
ATOM   1145  C6    G A  47     -27.044  -1.970  37.261  1.00  0.00     0.292 A 
ATOM   1146  O6    G A  47     -25.975  -2.503  37.577  1.00  0.00    -0.265 OA
ATOM   1147  C5    G A  47     -28.209  -1.781  38.051  1.00  0.00     0.173 A 
ATOM   1148  N7    G A  47     -28.469  -2.127  39.370  1.00  0.00    -0.234 NA
ATOM   1149  C8    G A  47     -29.691  -1.718  39.574  1.00  0.00     0.214 A 
ATOM   1150  C2'   G A  47     -32.684  -1.427  39.010  1.00  0.00     0.199 C 
ATOM   1151  O2'   G A  47     -33.177  -2.335  38.042  1.00  0.00    -0.388 OA
ATOM   1152 'HO2   G A  47     -34.001  -1.975  37.711  1.00  0.00     0.210 HD
ATOM   1153  C3'   G A  47     -33.721  -0.369  39.367  1.00  0.00     0.198 C 
ATOM   1154  O3'   G A  47     -34.577  -0.052  38.270  1.00  0.00    -0.279 OA
ATOM   1155  P     U A  48     -36.068  -0.652  38.217  1.00  0.00     0.408 P 
ATOM   1156  OP1   U A  48     -36.703  -0.415  39.538  1.00  0.00    -0.624 OA
ATOM   1157  OP2   U A  48     -35.987  -2.034  37.679  1.00  0.00    -0.624 OA
ATOM   1158  O5'   U A  48     -36.810   0.254  37.135  1.00  0.00    -0.287 OA
ATOM   1159  C5'   U A  48     -37.241   1.577  37.454  1.00  0.00     0.216 C 
ATOM   1160  C4'   U A  48     -38.045   2.150  36.309  1.00  0.00     0.180 C 
ATOM   1161  O4'   U A  48     -37.120   2.644  35.299  1.00  0.00    -0.353 OA
ATOM   1162  C1'   U A  48     -37.483   2.140  34.029  1.00  0.00     0.264 C 
ATOM   1163  N1    U A  48     -36.522   1.093  33.653  1.00  0.00    -0.280 N 
ATOM   1164  C6    U A  48     -35.565   0.650  34.539  1.00  0.00     0.104 A 
ATOM   1165  C2    U A  48     -36.611   0.563  32.378  1.00  0.00     0.331 A 
ATOM   1166  O2    U A  48     -37.438   0.931  31.563  1.00  0.00    -0.246 OA
ATOM   1167  N3    U A  48     -35.694  -0.416  32.093  1.00  0.00    -0.275 N 
ATOM   1168  H3    U A  48     -35.748  -0.822  31.171  1.00  0.00     0.173 HD
ATOM   1169  C4    U A  48     -34.718  -0.907  32.928  1.00  0.00     0.250 A 
ATOM   1170  O4    U A  48     -33.971  -1.798  32.527  1.00  0.00    -0.268 OA
ATOM   1171  C5    U A  48     -34.685  -0.305  34.224  1.00  0.00     0.092 A 
ATOM   1172  C2'   U A  48     -38.924   1.650  34.147  1.00  0.00     0.199 C 
ATOM   1173  O2'   U A  48     -39.796   2.752  33.973  1.00  0.00    -0.388 OA
ATOM   1174 'HO2   U A  48     -40.363   2.775  34.745  1.00  0.00     0.210 HD
ATOM   1175  C3'   U A  48     -38.947   1.155  35.588  1.00  0.00     0.198 C 
ATOM   1176  O3'   U A  48     -40.261   1.156  36.140  1.00  0.00    -0.279 OA
ATOM   1177  P     C A  49     -41.020  -0.237  36.404  1.00  0.00     0.408 P 
ATOM   1178  OP1   C A  49     -42.273   0.085  37.132  1.00  0.00    -0.624 OA
ATOM   1179  OP2   C A  49     -40.052  -1.197  36.997  1.00  0.00    -0.624 OA
ATOM   1180  O5'   C A  49     -41.416  -0.741  34.944  1.00  0.00    -0.287 OA
ATOM   1181  C5'   C A  49     -40.970  -2.004  34.451  1.00  0.00     0.216 C 
ATOM   1182  C4'   C A  49     -40.633  -1.897  32.981  1.00  0.00     0.180 C 
ATOM   1183  O4'   C A  49     -39.296  -1.338  32.848  1.00  0.00    -0.353 OA
ATOM   1184  C1'   C A  49     -38.566  -2.071  31.878  1.00  0.00     0.264 C 
ATOM   1185  N1    C A  49     -37.514  -2.835  32.571  1.00  0.00    -0.278 N 
ATOM   1186  C6    C A  49     -37.362  -2.749  33.927  1.00  0.00     0.102 A 
ATOM   1187  C2    C A  49     -36.669  -3.658  31.818  1.00  0.00     0.352 A 
ATOM   1188  O2    C A  49     -36.825  -3.715  30.591  1.00  0.00    -0.244 OA
ATOM   1189  N3    C A  49     -35.707  -4.369  32.447  1.00  0.00    -0.177 NA
ATOM   1190  C4    C A  49     -35.570  -4.281  33.771  1.00  0.00     0.128 A 
ATOM   1191  N4    C A  49     -34.607  -5.000  34.346  1.00  0.00    -0.384 N 
ATOM   1192  H41   C A  49     -34.471  -4.960  35.346  1.00  0.00     0.157 HD
ATOM   1193  H42   C A  49     -34.014  -5.587  33.779  1.00  0.00     0.157 HD
ATOM   1194  C5    C A  49     -36.415  -3.450  34.563  1.00  0.00     0.067 A 
ATOM   1195  C2'   C A  49     -39.573  -2.939  31.128  1.00  0.00     0.199 C 
ATOM   1196  O2'   C A  49     -40.152  -2.174  30.087  1.00  0.00    -0.388 OA
ATOM   1197 'HO2   C A  49     -41.101  -2.237  30.193  1.00  0.00     0.210 HD
ATOM   1198  C3'   C A  49     -40.584  -3.222  32.232  1.00  0.00     0.198 C 
ATOM   1199  O3'   C A  49     -41.865  -3.581  31.723  1.00  0.00    -0.279 OA
ATOM   1200  P     C A  50     -42.467  -5.042  32.027  1.00  0.00     0.408 P 
ATOM   1201  OP1   C A  50     -43.923  -4.993  31.744  1.00  0.00    -0.624 OA
ATOM   1202  OP2   C A  50     -41.994  -5.479  33.365  1.00  0.00    -0.624 OA
ATOM   1203  O5'   C A  50     -41.781  -5.976  30.935  1.00  0.00    -0.287 OA
ATOM   1204  C5'   C A  50     -41.882  -5.677  29.544  1.00  0.00     0.216 C 
ATOM   1205  C4'   C A  50     -40.898  -6.515  28.760  1.00  0.00     0.180 C 
ATOM   1206  O4'   C A  50     -39.553  -6.029  29.026  1.00  0.00    -0.353 OA
ATOM   1207  C1'   C A  50     -38.679  -7.126  29.228  1.00  0.00     0.264 C 
ATOM   1208  N1    C A  50     -38.260  -7.134  30.640  1.00  0.00    -0.278 N 
ATOM   1209  C6    C A  50     -38.916  -6.376  31.569  1.00  0.00     0.102 A 
ATOM   1210  C2    C A  50     -37.177  -7.931  31.018  1.00  0.00     0.352 A 
ATOM   1211  O2    C A  50     -36.603  -8.614  30.158  1.00  0.00    -0.244 OA
ATOM   1212  N3    C A  50     -36.783  -7.939  32.311  1.00  0.00    -0.177 NA
ATOM   1213  C4    C A  50     -37.427  -7.194  33.209  1.00  0.00     0.128 A 
ATOM   1214  N4    C A  50     -37.001  -7.233  34.471  1.00  0.00    -0.384 N 
ATOM   1215  H41   C A  50     -37.461  -6.684  35.182  1.00  0.00     0.157 HD
ATOM   1216  H42   C A  50     -36.211  -7.814  34.712  1.00  0.00     0.157 HD
ATOM   1217  C5    C A  50     -38.537  -6.375  32.853  1.00  0.00     0.067 A 
ATOM   1218  C2'   C A  50     -39.431  -8.384  28.798  1.00  0.00     0.199 C 
ATOM   1219  O2'   C A  50     -39.259  -8.565  27.406  1.00  0.00    -0.388 OA
ATOM   1220 'HO2   C A  50     -40.134  -8.662  27.028  1.00  0.00     0.210 HD
ATOM   1221  C3'   C A  50     -40.865  -7.991  29.131  1.00  0.00     0.198 C 
ATOM   1222  O3'   C A  50     -41.823  -8.736  28.386  1.00  0.00    -0.279 OA
ATOM   1223  P     C A  51     -42.606  -9.956  29.082  1.00  0.00     0.408 P 
ATOM   1224  OP1   C A  51     -43.741 -10.317  28.196  1.00  0.00    -0.624 OA
ATOM   1225  OP2   C A  51     -42.866  -9.610  30.503  1.00  0.00    -0.624 OA
ATOM   1226  O5'   C A  51     -41.555 -11.153  29.050  1.00  0.00    -0.287 OA
ATOM   1227  C5'   C A  51     -41.064 -11.665  27.812  1.00  0.00     0.216 C 
ATOM   1228  C4'   C A  51     -40.068 -12.773  28.065  1.00  0.00     0.180 C 
ATOM   1229  O4'   C A  51     -38.854 -12.190  28.616  1.00  0.00    -0.353 OA
ATOM   1230  C1'   C A  51     -38.372 -12.995  29.677  1.00  0.00     0.264 C 
ATOM   1231  N1    C A  51     -38.507 -12.242  30.935  1.00  0.00    -0.278 N 
ATOM   1232  C6    C A  51     -39.455 -11.266  31.069  1.00  0.00     0.102 A 
ATOM   1233  C2    C A  51     -37.649 -12.541  31.995  1.00  0.00     0.352 A 
ATOM   1234  O2    C A  51     -36.796 -13.427  31.845  1.00  0.00    -0.244 OA
ATOM   1235  N3    C A  51     -37.769 -11.861  33.155  1.00  0.00    -0.177 NA
ATOM   1236  C4    C A  51     -38.699 -10.912  33.279  1.00  0.00     0.128 A 
ATOM   1237  N4    C A  51     -38.781 -10.270  34.444  1.00  0.00    -0.384 N 
ATOM   1238  H41   C A  51     -39.472  -9.546  34.579  1.00  0.00     0.157 HD
ATOM   1239  H42   C A  51     -38.149 -10.515  35.194  1.00  0.00     0.157 HD
ATOM   1240  C5    C A  51     -39.586 -10.581  32.213  1.00  0.00     0.067 A 
ATOM   1241  C2'   C A  51     -39.171 -14.299  29.655  1.00  0.00     0.199 C 
ATOM   1242  O2'   C A  51     -38.539 -15.209  28.775  1.00  0.00    -0.388 OA
ATOM   1243 'HO2   C A  51     -39.227 -15.563  28.211  1.00  0.00     0.210 HD
ATOM   1244  C3'   C A  51     -40.500 -13.818  29.087  1.00  0.00     0.198 C 
ATOM   1245  O3'   C A  51     -41.239 -14.871  28.474  1.00  0.00    -0.279 OA
ATOM   1246  P     A A  52     -42.242 -15.763  29.361  1.00  0.00     0.408 P 
ATOM   1247  OP1   A A  52     -42.957 -16.676  28.432  1.00  0.00    -0.624 OA
ATOM   1248  OP2   A A  52     -43.021 -14.856  30.242  1.00  0.00    -0.624 OA
ATOM   1249  O5'   A A  52     -41.275 -16.637  30.277  1.00  0.00    -0.287 OA
ATOM   1250  C5'   A A  52     -40.525 -17.725  29.736  1.00  0.00     0.216 C 
ATOM   1251  C4'   A A  52     -40.125 -18.681  30.835  1.00  0.00     0.180 C 
ATOM   1252  O4'   A A  52     -39.042 -18.082  31.597  1.00  0.00    -0.353 OA
ATOM   1253  C1'   A A  52     -39.242 -18.312  32.978  1.00  0.00     0.262 C 
ATOM   1254  N9    A A  52     -39.459 -17.023  33.632  1.00  0.00    -0.294 N 
ATOM   1255  C4    A A  52     -38.939 -16.632  34.840  1.00  0.00     0.167 A 
ATOM   1256  N3    A A  52     -38.136 -17.346  35.650  1.00  0.00    -0.222 NA
ATOM   1257  C2    A A  52     -37.833 -16.649  36.740  1.00  0.00     0.237 A 
ATOM   1258  N1    A A  52     -38.209 -15.412  37.086  1.00  0.00    -0.222 NA
ATOM   1259  C6    A A  52     -39.013 -14.721  36.251  1.00  0.00     0.155 A 
ATOM   1260  N6    A A  52     -39.383 -13.488  36.599  1.00  0.00    -0.382 N 
ATOM   1261  H61   A A  52     -39.984 -12.953  35.990  1.00  0.00     0.157 HD
ATOM   1262  H62   A A  52     -39.065 -13.092  37.473  1.00  0.00     0.157 HD
ATOM   1263  C5    A A  52     -39.410 -15.351  35.059  1.00  0.00     0.149 A 
ATOM   1264  N7    A A  52     -40.213 -14.937  34.005  1.00  0.00    -0.236 NA
ATOM   1265  C8    A A  52     -40.210 -15.962  33.187  1.00  0.00     0.214 A 
ATOM   1266  C2'   A A  52     -40.414 -19.281  33.125  1.00  0.00     0.199 C 
ATOM   1267  O2'   A A  52     -39.908 -20.603  33.121  1.00  0.00    -0.388 OA
ATOM   1268 'HO2   A A  52     -40.439 -21.099  33.747  1.00  0.00     0.210 HD
ATOM   1269  C3'   A A  52     -41.211 -18.983  31.860  1.00  0.00     0.198 C 
ATOM   1270  O3'   A A  52     -42.017 -20.087  31.454  1.00  0.00    -0.279 OA
ATOM   1271  P     G A  53     -43.283 -20.523  32.345  1.00  0.00     0.408 P 
ATOM   1272  OP1   G A  53     -43.942 -21.661  31.654  1.00  0.00    -0.624 OA
ATOM   1273  OP2   G A  53     -44.072 -19.304  32.663  1.00  0.00    -0.624 OA
ATOM   1274  O5'   G A  53     -42.638 -21.074  33.694  1.00  0.00    -0.287 OA
ATOM   1275  C5'   G A  53     -43.227 -20.792  34.963  1.00  0.00     0.216 C 
ATOM   1276  C4'   G A  53     -42.247 -21.099  36.071  1.00  0.00     0.180 C 
ATOM   1277  O4'   G A  53     -41.169 -20.123  36.028  1.00  0.00    -0.353 OA
ATOM   1278  C1'   G A  53     -40.811 -19.745  37.347  1.00  0.00     0.262 C 
ATOM   1279  N9    G A  53     -41.119 -18.328  37.517  1.00  0.00    -0.293 N 
ATOM   1280  C4    G A  53     -40.928 -17.583  38.656  1.00  0.00     0.187 A 
ATOM   1281  N3    G A  53     -40.417 -18.033  39.822  1.00  0.00    -0.044 NA
ATOM   1282  C2    G A  53     -40.359 -17.080  40.734  1.00  0.00     0.703 A 
ATOM   1283  N2    G A  53     -39.879 -17.353  41.950  1.00  0.00    -0.233 N 
ATOM   1284  H21   G A  53     -39.562 -18.288  42.163  1.00  0.00     0.174 HD
ATOM   1285  H22   G A  53     -39.833 -16.627  42.652  1.00  0.00     0.174 HD
ATOM   1286  N1    G A  53     -40.768 -15.789  40.523  1.00  0.00    -0.153 N 
ATOM   1287  H1    G A  53     -40.680 -15.141  41.289  1.00  0.00     0.187 HD
ATOM   1288  C6    G A  53     -41.297 -15.302  39.333  1.00  0.00     0.292 A 
ATOM   1289  O6    G A  53     -41.636 -14.115  39.252  1.00  0.00    -0.265 OA
ATOM   1290  C5    G A  53     -41.366 -16.315  38.341  1.00  0.00     0.173 A 
ATOM   1291  N7    G A  53     -41.820 -16.261  37.031  1.00  0.00    -0.234 NA
ATOM   1292  C8    G A  53     -41.653 -17.475  36.584  1.00  0.00     0.214 A 
ATOM   1293  C2'   G A  53     -41.571 -20.659  38.308  1.00  0.00     0.199 C 
ATOM   1294  O2'   G A  53     -40.791 -21.815  38.550  1.00  0.00    -0.388 OA
ATOM   1295 'HO2   G A  53     -41.364 -22.570  38.411  1.00  0.00     0.210 HD
ATOM   1296  C3'   G A  53     -42.808 -20.991  37.483  1.00  0.00     0.198 C 
ATOM   1297  O3'   G A  53     -43.422 -22.211  37.897  1.00  0.00    -0.279 OA
ATOM   1298  P     A A  54     -44.906 -22.194  38.517  1.00  0.00     0.408 P 
ATOM   1299  OP1   A A  54     -45.511 -23.518  38.229  1.00  0.00    -0.624 OA
ATOM   1300  OP2   A A  54     -45.599 -20.961  38.065  1.00  0.00    -0.624 OA
ATOM   1301  O5'   A A  54     -44.666 -22.097  40.091  1.00  0.00    -0.287 OA
ATOM   1302  C5'   A A  54     -45.473 -21.249  40.911  1.00  0.00     0.216 C 
ATOM   1303  C4'   A A  54     -44.694 -20.812  42.128  1.00  0.00     0.180 C 
ATOM   1304  O4'   A A  54     -43.640 -19.906  41.701  1.00  0.00    -0.353 OA
ATOM   1305  C1'   A A  54     -43.549 -18.816  42.601  1.00  0.00     0.262 C 
ATOM   1306  N9    A A  54     -43.938 -17.599  41.889  1.00  0.00    -0.294 N 
ATOM   1307  C4    A A  54     -43.982 -16.329  42.415  1.00  0.00     0.167 A 
ATOM   1308  N3    A A  54     -43.678 -15.957  43.670  1.00  0.00    -0.222 NA
ATOM   1309  C2    A A  54     -43.841 -14.646  43.823  1.00  0.00     0.237 A 
ATOM   1310  N1    A A  54     -44.246 -13.732  42.932  1.00  0.00    -0.222 NA
ATOM   1311  C6    A A  54     -44.543 -14.138  41.679  1.00  0.00     0.155 A 
ATOM   1312  N6    A A  54     -44.944 -13.225  40.793  1.00  0.00    -0.382 N 
ATOM   1313  H61   A A  54     -45.170 -13.507  39.850  1.00  0.00     0.157 HD
ATOM   1314  H62   A A  54     -45.023 -12.255  41.064  1.00  0.00     0.157 HD
ATOM   1315  C5    A A  54     -44.410 -15.509  41.387  1.00  0.00     0.149 A 
ATOM   1316  N7    A A  54     -44.629 -16.247  40.231  1.00  0.00    -0.236 NA
ATOM   1317  C8    A A  54     -44.336 -17.475  40.580  1.00  0.00     0.214 A 
ATOM   1318  C2'   A A  54     -44.436 -19.139  43.803  1.00  0.00     0.199 C 
ATOM   1319  O2'   A A  54     -43.669 -19.852  44.755  1.00  0.00    -0.388 OA
ATOM   1320 'HO2   A A  54     -44.191 -20.613  45.012  1.00  0.00     0.210 HD
ATOM   1321  C3'   A A  54     -45.493 -20.033  43.165  1.00  0.00     0.198 C 
ATOM   1322  O3'   A A  54     -46.107 -20.905  44.115  1.00  0.00    -0.279 OA
ATOM   1323  P     U A  55     -47.536 -20.522  44.752  1.00  0.00     0.408 P 
ATOM   1324  OP1   U A  55     -48.204 -21.794  45.128  1.00  0.00    -0.624 OA
ATOM   1325  OP2   U A  55     -48.229 -19.571  43.844  1.00  0.00    -0.624 OA
ATOM   1326  O5'   U A  55     -47.167 -19.753  46.098  1.00  0.00    -0.287 OA
ATOM   1327  C5'   U A  55     -46.801 -18.373  46.084  1.00  0.00     0.216 C 
ATOM   1328  C4'   U A  55     -47.798 -17.558  46.875  1.00  0.00     0.180 C 
ATOM   1329  O4'   U A  55     -47.674 -16.165  46.477  1.00  0.00    -0.353 OA
ATOM   1330  C1'   U A  55     -48.960 -15.583  46.352  1.00  0.00     0.264 C 
ATOM   1331  N1    U A  55     -49.184 -15.255  44.936  1.00  0.00    -0.280 N 
ATOM   1332  C6    U A  55     -48.710 -16.070  43.932  1.00  0.00     0.104 A 
ATOM   1333  C2    U A  55     -49.888 -14.101  44.645  1.00  0.00     0.331 A 
ATOM   1334  O2    U A  55     -50.318 -13.352  45.503  1.00  0.00    -0.246 OA
ATOM   1335  N3    U A  55     -50.067 -13.854  43.309  1.00  0.00    -0.275 N 
ATOM   1336  H3    U A  55     -50.595 -13.026  43.072  1.00  0.00     0.173 HD
ATOM   1337  C4    U A  55     -49.620 -14.620  42.256  1.00  0.00     0.250 A 
ATOM   1338  O4    U A  55     -49.850 -14.259  41.104  1.00  0.00    -0.268 OA
ATOM   1339  C5    U A  55     -48.901 -15.794  42.640  1.00  0.00     0.092 A 
ATOM   1340  C2'   U A  55     -49.968 -16.580  46.919  1.00  0.00     0.199 C 
ATOM   1341  O2'   U A  55     -50.099 -16.347  48.310  1.00  0.00    -0.388 OA
ATOM   1342 'HO2   U A  55     -50.140 -17.206  48.732  1.00  0.00     0.210 HD
ATOM   1343  C3'   U A  55     -49.265 -17.903  46.642  1.00  0.00     0.198 C 
ATOM   1344  O3'   U A  55     -49.707 -18.941  47.513  1.00  0.00    -0.279 OA
ATOM   1345  P     U A  56     -51.064 -19.739  47.182  1.00  0.00     0.408 P 
ATOM   1346  OP1   U A  56     -51.125 -20.908  48.096  1.00  0.00    -0.624 OA
ATOM   1347  OP2   U A  56     -51.127 -19.953  45.712  1.00  0.00    -0.624 OA
ATOM   1348  O5'   U A  56     -52.221 -18.725  47.599  1.00  0.00    -0.287 OA
ATOM   1349  C5'   U A  56     -53.467 -18.692  46.900  1.00  0.00     0.216 C 
ATOM   1350  C4'   U A  56     -53.943 -17.265  46.747  1.00  0.00     0.180 C 
ATOM   1351  O4'   U A  56     -52.865 -16.474  46.176  1.00  0.00    -0.353 OA
ATOM   1352  C1'   U A  56     -53.380 -15.594  45.193  1.00  0.00     0.264 C 
ATOM   1353  N1    U A  56     -52.855 -16.004  43.882  1.00  0.00    -0.280 N 
ATOM   1354  C6    U A  56     -52.239 -17.223  43.708  1.00  0.00     0.104 A 
ATOM   1355  C2    U A  56     -53.002 -15.124  42.827  1.00  0.00     0.331 A 
ATOM   1356  O2    U A  56     -53.533 -14.034  42.942  1.00  0.00    -0.246 OA
ATOM   1357  N3    U A  56     -52.504 -15.567  41.629  1.00  0.00    -0.275 N 
ATOM   1358  H3    U A  56     -52.609 -14.948  40.842  1.00  0.00     0.173 HD
ATOM   1359  C4    U A  56     -51.883 -16.769  41.385  1.00  0.00     0.250 A 
ATOM   1360  O4    U A  56     -51.482 -17.021  40.249  1.00  0.00    -0.268 OA
ATOM   1361  C5    U A  56     -51.763 -17.621  42.526  1.00  0.00     0.092 A 
ATOM   1362  C2'   U A  56     -54.905 -15.649  45.285  1.00  0.00     0.199 C 
ATOM   1363  O2'   U A  56     -55.337 -14.690  46.233  1.00  0.00    -0.388 OA
ATOM   1364 'HO2   U A  56     -55.563 -15.170  47.030  1.00  0.00     0.210 HD
ATOM   1365  C3'   U A  56     -55.120 -17.067  45.798  1.00  0.00     0.198 C 
ATOM   1366  O3'   U A  56     -56.367 -17.210  46.473  1.00  0.00    -0.279 OA
ATOM   1367  P     C A  57     -57.610 -17.904  45.722  1.00  0.00     0.408 P 
ATOM   1368  OP1   C A  57     -58.843 -17.493  46.439  1.00  0.00    -0.624 OA
ATOM   1369  OP2   C A  57     -57.302 -19.348  45.560  1.00  0.00    -0.624 OA
ATOM   1370  O5'   C A  57     -57.626 -17.226  44.278  1.00  0.00    -0.287 OA
ATOM   1371  C5'   C A  57     -57.998 -17.970  43.117  1.00  0.00     0.216 C 
ATOM   1372  C4'   C A  57     -58.872 -17.130  42.214  1.00  0.00     0.180 C 
ATOM   1373  O4'   C A  57     -60.044 -16.700  42.961  1.00  0.00    -0.353 OA
ATOM   1374  C1'   C A  57     -60.343 -15.351  42.652  1.00  0.00     0.264 C 
ATOM   1375  N1    C A  57     -60.137 -14.540  43.863  1.00  0.00    -0.278 N 
ATOM   1376  C6    C A  57     -59.092 -14.795  44.705  1.00  0.00     0.102 A 
ATOM   1377  C2    C A  57     -61.029 -13.500  44.139  1.00  0.00     0.352 A 
ATOM   1378  O2    C A  57     -61.971 -13.293  43.360  1.00  0.00    -0.244 OA
ATOM   1379  N3    C A  57     -60.844 -12.750  45.248  1.00  0.00    -0.177 NA
ATOM   1380  C4    C A  57     -59.819 -13.005  46.062  1.00  0.00     0.128 A 
ATOM   1381  N4    C A  57     -59.675 -12.236  47.141  1.00  0.00    -0.384 N 
ATOM   1382  H41   C A  57     -58.909 -12.401  47.778  1.00  0.00     0.157 HD
ATOM   1383  H42   C A  57     -60.333 -11.492  47.313  1.00  0.00     0.157 HD
ATOM   1384  C5    C A  57     -58.897 -14.060  45.807  1.00  0.00     0.067 A 
ATOM   1385  C2'   C A  57     -59.450 -14.941  41.480  1.00  0.00     0.199 C 
ATOM   1386  O2'   C A  57     -60.110 -15.263  40.269  1.00  0.00    -0.388 OA
ATOM   1387 'HO2   C A  57     -59.443 -15.611  39.678  1.00  0.00     0.210 HD
ATOM   1388  C3'   C A  57     -58.241 -15.841  41.703  1.00  0.00     0.198 C 
ATOM   1389  O3'   C A  57     -57.503 -16.058  40.503  1.00  0.00    -0.279 OA
ATOM   1390  P     G A  58     -55.904 -15.874  40.499  1.00  0.00     0.408 P 
ATOM   1391  OP1   G A  58     -55.386 -16.555  39.286  1.00  0.00    -0.624 OA
ATOM   1392  OP2   G A  58     -55.384 -16.263  41.835  1.00  0.00    -0.624 OA
ATOM   1393  O5'   G A  58     -55.694 -14.305  40.315  1.00  0.00    -0.287 OA
ATOM   1394  C5'   G A  58     -56.009 -13.661  39.079  1.00  0.00     0.216 C 
ATOM   1395  C4'   G A  58     -55.906 -12.161  39.229  1.00  0.00     0.180 C 
ATOM   1396  O4'   G A  58     -57.020 -11.700  40.042  1.00  0.00    -0.353 OA
ATOM   1397  C1'   G A  58     -56.563 -10.751  40.989  1.00  0.00     0.262 C 
ATOM   1398  N9    G A  58     -56.679 -11.338  42.320  1.00  0.00    -0.293 N 
ATOM   1399  C4    G A  58     -56.522 -10.685  43.519  1.00  0.00     0.187 A 
ATOM   1400  N3    G A  58     -56.231  -9.378  43.678  1.00  0.00    -0.044 NA
ATOM   1401  C2    G A  58     -56.142  -9.043  44.953  1.00  0.00     0.703 A 
ATOM   1402  N2    G A  58     -55.857  -7.782  45.289  1.00  0.00    -0.233 N 
ATOM   1403  H21   G A  58     -55.711  -7.100  44.559  1.00  0.00     0.174 HD
ATOM   1404  H22   G A  58     -55.785  -7.514  46.258  1.00  0.00     0.174 HD
ATOM   1405  N1    G A  58     -56.328  -9.918  45.991  1.00  0.00    -0.153 N 
ATOM   1406  H1    G A  58     -56.239  -9.562  46.930  1.00  0.00     0.187 HD
ATOM   1407  C6    G A  58     -56.632 -11.268  45.854  1.00  0.00     0.292 A 
ATOM   1408  O6    G A  58     -56.784 -11.968  46.861  1.00  0.00    -0.265 OA
ATOM   1409  C5    G A  58     -56.726 -11.645  44.488  1.00  0.00     0.173 A 
ATOM   1410  N7    G A  58     -57.005 -12.877  43.911  1.00  0.00    -0.234 NA
ATOM   1411  C8    G A  58     -56.963 -12.645  42.628  1.00  0.00     0.214 A 
ATOM   1412  C2'   G A  58     -55.134 -10.373  40.605  1.00  0.00     0.199 C 
ATOM   1413  O2'   G A  58     -55.178  -9.305  39.679  1.00  0.00    -0.388 OA
ATOM   1414 'HO2   G A  58     -54.419  -9.413  39.103  1.00  0.00     0.210 HD
ATOM   1415  C3'   G A  58     -54.656 -11.659  39.941  1.00  0.00     0.198 C 
ATOM   1416  O3'   G A  58     -53.589 -11.423  39.024  1.00  0.00    -0.279 OA
ATOM   1417  P     A A  59     -52.385 -12.482  38.909  1.00  0.00     0.408 P 
ATOM   1418  OP1   A A  59     -52.785 -13.503  37.907  1.00  0.00    -0.624 OA
ATOM   1419  OP2   A A  59     -52.010 -12.907  40.280  1.00  0.00    -0.624 OA
ATOM   1420  O5'   A A  59     -51.176 -11.637  38.304  1.00  0.00    -0.287 OA
ATOM   1421  C5'   A A  59     -51.394 -10.645  37.301  1.00  0.00     0.216 C 
ATOM   1422  C4'   A A  59     -50.835  -9.316  37.753  1.00  0.00     0.180 C 
ATOM   1423  O4'   A A  59     -51.254  -9.068  39.124  1.00  0.00    -0.353 OA
ATOM   1424  C1'   A A  59     -50.199  -8.448  39.843  1.00  0.00     0.262 C 
ATOM   1425  N9    A A  59     -49.771  -9.352  40.911  1.00  0.00    -0.294 N 
ATOM   1426  C4    A A  59     -49.339  -8.976  42.161  1.00  0.00     0.167 A 
ATOM   1427  N3    A A  59     -49.224  -7.727  42.642  1.00  0.00    -0.222 NA
ATOM   1428  C2    A A  59     -48.774  -7.745  43.894  1.00  0.00     0.237 A 
ATOM   1429  N1    A A  59     -48.449  -8.794  44.662  1.00  0.00    -0.222 NA
ATOM   1430  C6    A A  59     -48.579 -10.035  44.148  1.00  0.00     0.155 A 
ATOM   1431  N6    A A  59     -48.257 -11.077  44.917  1.00  0.00    -0.382 N 
ATOM   1432  H61   A A  59     -48.347 -12.015  44.556  1.00  0.00     0.157 HD
ATOM   1433  H62   A A  59     -47.931 -10.922  45.860  1.00  0.00     0.157 HD
ATOM   1434  C5    A A  59     -49.046 -10.151  42.827  1.00  0.00     0.149 A 
ATOM   1435  N7    A A  59     -49.286 -11.250  42.014  1.00  0.00    -0.236 NA
ATOM   1436  C8    A A  59     -49.713 -10.724  40.891  1.00  0.00     0.214 A 
ATOM   1437  C2'   A A  59     -49.102  -8.115  38.833  1.00  0.00     0.199 C 
ATOM   1438  O2'   A A  59     -49.396  -6.822  38.343  1.00  0.00    -0.388 OA
ATOM   1439 'HO2   A A  59     -50.242  -6.881  37.896  1.00  0.00     0.210 HD
ATOM   1440  C3'   A A  59     -49.316  -9.229  37.810  1.00  0.00     0.198 C 
ATOM   1441  O3'   A A  59     -48.728  -9.015  36.514  1.00  0.00    -0.279 OA
ATOM   1442  P     G A  60     -48.822  -7.580  35.782  1.00  0.00     0.408 P 
ATOM   1443  OP1   G A  60     -50.157  -6.983  36.049  1.00  0.00    -0.624 OA
ATOM   1444  OP2   G A  60     -48.386  -7.780  34.377  1.00  0.00    -0.624 OA
ATOM   1445  O5'   G A  60     -47.709  -6.700  36.508  1.00  0.00    -0.287 OA
ATOM   1446  C5'   G A  60     -47.734  -5.276  36.437  1.00  0.00     0.216 C 
ATOM   1447  C4'   G A  60     -46.391  -4.711  36.838  1.00  0.00     0.180 C 
ATOM   1448  O4'   G A  60     -46.409  -3.280  36.591  1.00  0.00    -0.353 OA
ATOM   1449  C1'   G A  60     -45.803  -2.596  37.670  1.00  0.00     0.262 C 
ATOM   1450  N9    G A  60     -46.817  -1.763  38.310  1.00  0.00    -0.293 N 
ATOM   1451  C4    G A  60     -48.058  -2.166  38.745  1.00  0.00     0.187 A 
ATOM   1452  N3    G A  60     -48.561  -3.415  38.661  1.00  0.00    -0.044 NA
ATOM   1453  C2    G A  60     -49.779  -3.489  39.163  1.00  0.00     0.703 A 
ATOM   1454  N2    G A  60     -50.424  -4.658  39.161  1.00  0.00    -0.233 N 
ATOM   1455  H21   G A  60     -49.963  -5.470  38.771  1.00  0.00     0.174 HD
ATOM   1456  H22   G A  60     -51.351  -4.735  39.549  1.00  0.00     0.174 HD
ATOM   1457  N1    G A  60     -50.454  -2.428  39.705  1.00  0.00    -0.153 N 
ATOM   1458  H1    G A  60     -51.382  -2.596  40.060  1.00  0.00     0.187 HD
ATOM   1459  C6    G A  60     -49.957  -1.133  39.805  1.00  0.00     0.292 A 
ATOM   1460  O6    G A  60     -50.652  -0.247  40.316  1.00  0.00    -0.265 OA
ATOM   1461  C5    G A  60     -48.646  -1.035  39.270  1.00  0.00     0.173 A 
ATOM   1462  N7    G A  60     -47.795   0.058  39.168  1.00  0.00    -0.234 NA
ATOM   1463  C8    G A  60     -46.725  -0.423  38.595  1.00  0.00     0.214 A 
ATOM   1464  C2'   G A  60     -45.178  -3.636  38.599  1.00  0.00     0.199 C 
ATOM   1465  O2'   G A  60     -43.835  -3.845  38.203  1.00  0.00    -0.388 OA
ATOM   1466 'HO2   G A  60     -43.786  -4.740  37.866  1.00  0.00     0.210 HD
ATOM   1467  C3'   G A  60     -46.032  -4.869  38.312  1.00  0.00     0.198 C 
ATOM   1468  O3'   G A  60     -45.319  -6.084  38.534  1.00  0.00    -0.279 OA
ATOM   1469  P     U A  61     -45.088  -6.619  40.034  1.00  0.00     0.408 P 
ATOM   1470  OP1   U A  61     -43.741  -7.245  40.074  1.00  0.00    -0.624 OA
ATOM   1471  OP2   U A  61     -46.275  -7.412  40.442  1.00  0.00    -0.624 OA
ATOM   1472  O5'   U A  61     -45.054  -5.299  40.926  1.00  0.00    -0.287 OA
ATOM   1473  C5'   U A  61     -43.824  -4.640  41.228  1.00  0.00     0.216 C 
ATOM   1474  C4'   U A  61     -44.062  -3.529  42.224  1.00  0.00     0.180 C 
ATOM   1475  O4'   U A  61     -45.147  -2.690  41.736  1.00  0.00    -0.353 OA
ATOM   1476  C1'   U A  61     -46.024  -2.371  42.801  1.00  0.00     0.264 C 
ATOM   1477  N1    U A  61     -47.313  -3.032  42.556  1.00  0.00    -0.280 N 
ATOM   1478  C6    U A  61     -47.384  -4.239  41.899  1.00  0.00     0.104 A 
ATOM   1479  C2    U A  61     -48.457  -2.402  43.012  1.00  0.00     0.331 A 
ATOM   1480  O2    U A  61     -48.438  -1.334  43.594  1.00  0.00    -0.246 OA
ATOM   1481  N3    U A  61     -49.626  -3.071  42.758  1.00  0.00    -0.275 N 
ATOM   1482  H3    U A  61     -50.471  -2.628  43.085  1.00  0.00     0.173 HD
ATOM   1483  C4    U A  61     -49.769  -4.277  42.112  1.00  0.00     0.250 A 
ATOM   1484  O4    U A  61     -50.895  -4.747  41.954  1.00  0.00    -0.268 OA
ATOM   1485  C5    U A  61     -48.543  -4.862  41.670  1.00  0.00     0.092 A 
ATOM   1486  C2'   U A  61     -45.344  -2.808  44.097  1.00  0.00     0.199 C 
ATOM   1487  O2'   U A  61     -44.526  -1.752  44.562  1.00  0.00    -0.388 OA
ATOM   1488 'HO2   U A  61     -43.626  -2.079  44.559  1.00  0.00     0.210 HD
ATOM   1489  C3'   U A  61     -44.504  -3.983  43.610  1.00  0.00     0.198 C 
ATOM   1490  O3'   U A  61     -43.387  -4.233  44.457  1.00  0.00    -0.279 OA
ATOM   1491  P     U A  62     -42.939  -5.746  44.768  1.00  0.00     0.408 P 
ATOM   1492  OP1   U A  62     -41.559  -5.688  45.315  1.00  0.00    -0.624 OA
ATOM   1493  OP2   U A  62     -43.219  -6.586  43.576  1.00  0.00    -0.624 OA
ATOM   1494  O5'   U A  62     -43.927  -6.209  45.931  1.00  0.00    -0.287 OA
ATOM   1495  C5'   U A  62     -43.507  -6.230  47.296  1.00  0.00     0.216 C 
ATOM   1496  C4'   U A  62     -43.183  -7.644  47.722  1.00  0.00     0.180 C 
ATOM   1497  O4'   U A  62     -44.353  -8.484  47.503  1.00  0.00    -0.353 OA
ATOM   1498  C1'   U A  62     -43.945  -9.752  47.016  1.00  0.00     0.264 C 
ATOM   1499  N1    U A  62     -44.431  -9.905  45.636  1.00  0.00    -0.280 N 
ATOM   1500  C6    U A  62     -44.971  -8.846  44.941  1.00  0.00     0.104 A 
ATOM   1501  C2    U A  62     -44.315 -11.153  45.055  1.00  0.00     0.331 A 
ATOM   1502  O2    U A  62     -43.853 -12.115  45.638  1.00  0.00    -0.246 OA
ATOM   1503  N3    U A  62     -44.761 -11.234  43.762  1.00  0.00    -0.275 N 
ATOM   1504  H3    U A  62     -44.682 -12.139  43.322  1.00  0.00     0.173 HD
ATOM   1505  C4    U A  62     -45.302 -10.221  43.007  1.00  0.00     0.250 A 
ATOM   1506  O4    U A  62     -45.636 -10.450  41.844  1.00  0.00    -0.268 OA
ATOM   1507  C5    U A  62     -45.397  -8.963  43.680  1.00  0.00     0.092 A 
ATOM   1508  C2'   U A  62     -42.424  -9.806  47.125  1.00  0.00     0.199 C 
ATOM   1509  O2'   U A  62     -42.074 -10.259  48.420  1.00  0.00    -0.388 OA
ATOM   1510 'HO2   U A  62     -41.354  -9.706  48.723  1.00  0.00     0.210 HD
ATOM   1511  C3'   U A  62     -42.074  -8.337  46.940  1.00  0.00     0.198 C 
ATOM   1512  O3'   U A  62     -40.779  -8.021  47.443  1.00  0.00    -0.279 OA
ATOM   1513  P     C A  63     -39.479  -8.325  46.545  1.00  0.00     0.408 P 
ATOM   1514  OP1   C A  63     -38.297  -7.810  47.282  1.00  0.00    -0.624 OA
ATOM   1515  OP2   C A  63     -39.740  -7.858  45.160  1.00  0.00    -0.624 OA
ATOM   1516  O5'   C A  63     -39.393  -9.917  46.514  1.00  0.00    -0.287 OA
ATOM   1517  C5'   C A  63     -38.782 -10.645  47.579  1.00  0.00     0.216 C 
ATOM   1518  C4'   C A  63     -38.543 -12.078  47.164  1.00  0.00     0.180 C 
ATOM   1519  O4'   C A  63     -39.777 -12.632  46.631  1.00  0.00    -0.353 OA
ATOM   1520  C1'   C A  63     -39.483 -13.508  45.556  1.00  0.00     0.264 C 
ATOM   1521  N1    C A  63     -40.124 -12.984  44.338  1.00  0.00    -0.278 N 
ATOM   1522  C6    C A  63     -40.529 -11.681  44.262  1.00  0.00     0.102 A 
ATOM   1523  C2    C A  63     -40.311 -13.844  43.253  1.00  0.00     0.352 A 
ATOM   1524  O2    C A  63     -39.938 -15.022  43.346  1.00  0.00    -0.244 OA
ATOM   1525  N3    C A  63     -40.892 -13.371  42.128  1.00  0.00    -0.177 NA
ATOM   1526  C4    C A  63     -41.281 -12.098  42.064  1.00  0.00     0.128 A 
ATOM   1527  N4    C A  63     -41.847 -11.677  40.933  1.00  0.00    -0.384 N 
ATOM   1528  H41   C A  63     -42.155 -10.720  40.842  1.00  0.00     0.157 HD
ATOM   1529  H42   C A  63     -41.960 -12.322  40.164  1.00  0.00     0.157 HD
ATOM   1530  C5    C A  63     -41.107 -11.199  43.155  1.00  0.00     0.067 A 
ATOM   1531  C2'   C A  63     -37.962 -13.613  45.448  1.00  0.00     0.199 C 
ATOM   1532  O2'   C A  63     -37.527 -14.698  46.246  1.00  0.00    -0.388 OA
ATOM   1533 'HO2   C A  63     -36.823 -14.370  46.806  1.00  0.00     0.210 HD
ATOM   1534  C3'   C A  63     -37.530 -12.279  46.045  1.00  0.00     0.198 C 
ATOM   1535  O3'   C A  63     -36.194 -12.313  46.542  1.00  0.00    -0.279 OA
ATOM   1536  P     U A  64     -34.964 -12.037  45.543  1.00  0.00     0.408 P 
ATOM   1537  OP1   U A  64     -33.719 -12.063  46.352  1.00  0.00    -0.624 OA
ATOM   1538  OP2   U A  64     -35.283 -10.838  44.726  1.00  0.00    -0.624 OA
ATOM   1539  O5'   U A  64     -34.959 -13.305  44.577  1.00  0.00    -0.287 OA
ATOM   1540  C5'   U A  64     -34.615 -14.601  45.066  1.00  0.00     0.216 C 
ATOM   1541  C4'   U A  64     -34.192 -15.495  43.922  1.00  0.00     0.180 C 
ATOM   1542  O4'   U A  64     -35.382 -16.007  43.259  1.00  0.00    -0.353 OA
ATOM   1543  C1'   U A  64     -35.167 -16.047  41.859  1.00  0.00     0.264 C 
ATOM   1544  N1    U A  64     -36.091 -15.101  41.218  1.00  0.00    -0.280 N 
ATOM   1545  C6    U A  64     -36.420 -13.903  41.817  1.00  0.00     0.104 A 
ATOM   1546  C2    U A  64     -36.620 -15.449  39.990  1.00  0.00     0.331 A 
ATOM   1547  O2    U A  64     -36.355 -16.497  39.428  1.00  0.00    -0.246 OA
ATOM   1548  N3    U A  64     -37.471 -14.526  39.442  1.00  0.00    -0.275 N 
ATOM   1549  H3    U A  64     -37.863 -14.760  38.543  1.00  0.00     0.173 HD
ATOM   1550  C4    U A  64     -37.843 -13.317  39.980  1.00  0.00     0.250 A 
ATOM   1551  O4    U A  64     -38.631 -12.600  39.365  1.00  0.00    -0.268 OA
ATOM   1552  C5    U A  64     -37.256 -13.027  41.250  1.00  0.00     0.092 A 
ATOM   1553  C2'   U A  64     -33.693 -15.723  41.621  1.00  0.00     0.199 C 
ATOM   1554  O2'   U A  64     -32.944 -16.922  41.697  1.00  0.00    -0.388 OA
ATOM   1555 'HO2   U A  64     -32.073 -16.726  41.351  1.00  0.00     0.210 HD
ATOM   1556  C3'   U A  64     -33.408 -14.814  42.808  1.00  0.00     0.198 C 
ATOM   1557  O3'   U A  64     -32.019 -14.724  43.109  1.00  0.00    -0.279 OA
ATOM   1558  P     G A  65     -31.151 -13.510  42.509  1.00  0.00     0.408 P 
ATOM   1559  OP1   G A  65     -29.777 -13.635  43.059  1.00  0.00    -0.624 OA
ATOM   1560  OP2   G A  65     -31.910 -12.248  42.711  1.00  0.00    -0.624 OA
ATOM   1561  O5'   G A  65     -31.095 -13.813  40.944  1.00  0.00    -0.287 OA
ATOM   1562  C5'   G A  65     -29.975 -14.482  40.363  1.00  0.00     0.216 C 
ATOM   1563  C4'   G A  65     -30.396 -15.221  39.110  1.00  0.00     0.180 C 
ATOM   1564  O4'   G A  65     -31.834 -15.419  39.122  1.00  0.00    -0.353 OA
ATOM   1565  C1'   G A  65     -32.325 -15.414  37.793  1.00  0.00     0.262 C 
ATOM   1566  N9    G A  65     -33.390 -14.416  37.699  1.00  0.00    -0.293 N 
ATOM   1567  C4    G A  65     -34.132 -14.118  36.582  1.00  0.00     0.187 A 
ATOM   1568  N3    G A  65     -34.001 -14.690  35.367  1.00  0.00    -0.044 NA
ATOM   1569  C2    G A  65     -34.857 -14.192  34.493  1.00  0.00     0.703 A 
ATOM   1570  N2    G A  65     -34.855 -14.644  33.237  1.00  0.00    -0.233 N 
ATOM   1571  H21   G A  65     -34.194 -15.362  32.976  1.00  0.00     0.174 HD
ATOM   1572  H22   G A  65     -35.500 -14.267  32.556  1.00  0.00     0.174 HD
ATOM   1573  N1    G A  65     -35.774 -13.216  34.785  1.00  0.00    -0.153 N 
ATOM   1574  H1    G A  65     -36.384 -12.908  34.044  1.00  0.00     0.187 HD
ATOM   1575  C6    G A  65     -35.930 -12.613  36.028  1.00  0.00     0.292 A 
ATOM   1576  O6    G A  65     -36.794 -11.740  36.184  1.00  0.00    -0.265 OA
ATOM   1577  C5    G A  65     -35.013 -13.134  36.980  1.00  0.00     0.173 A 
ATOM   1578  N7    G A  65     -34.826 -12.817  38.318  1.00  0.00    -0.234 NA
ATOM   1579  C8    G A  65     -33.853 -13.598  38.700  1.00  0.00     0.214 A 
ATOM   1580  C2'   G A  65     -31.144 -15.148  36.855  1.00  0.00     0.199 C 
ATOM   1581  O2'   G A  65     -30.656 -16.389  36.382  1.00  0.00    -0.388 OA
ATOM   1582 'HO2   G A  65     -29.702 -16.343  36.425  1.00  0.00     0.210 HD
ATOM   1583  C3'   G A  65     -30.142 -14.493  37.799  1.00  0.00     0.198 C 
ATOM   1584  O3'   G A  65     -28.795 -14.663  37.364  1.00  0.00    -0.279 OA
ATOM   1585  P     G A  66     -28.056 -13.479  36.561  1.00  0.00     0.408 P 
ATOM   1586  OP1   G A  66     -26.615 -13.833  36.489  1.00  0.00    -0.624 OA
ATOM   1587  OP2   G A  66     -28.462 -12.178  37.150  1.00  0.00    -0.624 OA
ATOM   1588  O5'   G A  66     -28.655 -13.573  35.087  1.00  0.00    -0.287 OA
ATOM   1589  C5'   G A  66     -28.620 -14.797  34.354  1.00  0.00     0.216 C 
ATOM   1590  C4'   G A  66     -29.156 -14.582  32.957  1.00  0.00     0.180 C 
ATOM   1591  O4'   G A  66     -30.484 -13.992  33.056  1.00  0.00    -0.353 OA
ATOM   1592  C1'   G A  66     -30.500 -12.746  32.392  1.00  0.00     0.262 C 
ATOM   1593  N9    G A  66     -31.370 -11.840  33.135  1.00  0.00    -0.293 N 
ATOM   1594  C4    G A  66     -32.445 -11.151  32.633  1.00  0.00     0.187 A 
ATOM   1595  N3    G A  66     -32.889 -11.194  31.359  1.00  0.00    -0.044 NA
ATOM   1596  C2    G A  66     -33.946 -10.424  31.179  1.00  0.00     0.703 A 
ATOM   1597  N2    G A  66     -34.519 -10.356  29.974  1.00  0.00    -0.233 N 
ATOM   1598  H21   G A  66     -34.135 -10.896  29.213  1.00  0.00     0.174 HD
ATOM   1599  H22   G A  66     -35.333  -9.775  29.831  1.00  0.00     0.174 HD
ATOM   1600  N1    G A  66     -34.522  -9.667  32.166  1.00  0.00    -0.153 N 
ATOM   1601  H1    G A  66     -35.325  -9.110  31.921  1.00  0.00     0.187 HD
ATOM   1602  C6    G A  66     -34.083  -9.606  33.485  1.00  0.00     0.292 A 
ATOM   1603  O6    G A  66     -34.677  -8.888  34.296  1.00  0.00    -0.265 OA
ATOM   1604  C5    G A  66     -32.949 -10.432  33.696  1.00  0.00     0.173 A 
ATOM   1605  N7    G A  66     -32.204 -10.665  34.845  1.00  0.00    -0.234 NA
ATOM   1606  C8    G A  66     -31.281 -11.504  34.463  1.00  0.00     0.214 A 
ATOM   1607  C2'   G A  66     -29.050 -12.290  32.297  1.00  0.00     0.199 C 
ATOM   1608  O2'   G A  66     -28.909 -11.451  31.166  1.00  0.00    -0.388 OA
ATOM   1609 'HO2   G A  66     -28.762 -12.026  30.414  1.00  0.00     0.210 HD
ATOM   1610  C3'   G A  66     -28.343 -13.624  32.089  1.00  0.00     0.198 C 
ATOM   1611  O3'   G A  66     -28.349 -14.028  30.721  1.00  0.00    -0.279 OA
ATOM   1612  P     C A  67     -27.302 -15.137  30.207  1.00  0.00     0.408 P 
ATOM   1613  OP1   C A  67     -26.913 -15.972  31.372  1.00  0.00    -0.624 OA
ATOM   1614  OP2   C A  67     -26.252 -14.444  29.419  1.00  0.00    -0.624 OA
ATOM   1615  O5'   C A  67     -28.155 -16.045  29.213  1.00  0.00    -0.287 OA
ATOM   1616  C5'   C A  67     -29.445 -16.532  29.578  1.00  0.00     0.216 C 
ATOM   1617  C4'   C A  67     -30.487 -16.017  28.615  1.00  0.00     0.180 C 
ATOM   1618  O4'   C A  67     -31.734 -16.728  28.859  1.00  0.00    -0.353 OA
ATOM   1619  C1'   C A  67     -32.740 -15.813  29.245  1.00  0.00     0.264 C 
ATOM   1620  N1    C A  67     -33.558 -16.436  30.299  1.00  0.00    -0.278 N 
ATOM   1621  C6    C A  67     -34.902 -16.617  30.123  1.00  0.00     0.102 A 
ATOM   1622  C2    C A  67     -32.943 -16.844  31.488  1.00  0.00     0.352 A 
ATOM   1623  O2    C A  67     -31.726 -16.666  31.627  1.00  0.00    -0.244 OA
ATOM   1624  N3    C A  67     -33.691 -17.417  32.457  1.00  0.00    -0.177 NA
ATOM   1625  C4    C A  67     -35.000 -17.589  32.275  1.00  0.00     0.128 A 
ATOM   1626  N4    C A  67     -35.693 -18.160  33.257  1.00  0.00    -0.384 N 
ATOM   1627  H41   C A  67     -36.686 -18.309  33.159  1.00  0.00     0.157 HD
ATOM   1628  H42   C A  67     -35.217 -18.446  34.101  1.00  0.00     0.157 HD
ATOM   1629  C5    C A  67     -35.654 -17.182  31.076  1.00  0.00     0.067 A 
ATOM   1630  C2'   C A  67     -32.032 -14.536  29.684  1.00  0.00     0.199 C 
ATOM   1631  O2'   C A  67     -32.880 -13.434  29.420  1.00  0.00    -0.388 OA
ATOM   1632 'HO2   C A  67     -32.420 -12.877  28.792  1.00  0.00     0.210 HD
ATOM   1633  C3'   C A  67     -30.822 -14.534  28.756  1.00  0.00     0.198 C 
ATOM   1634  O3'   C A  67     -31.112 -13.946  27.491  1.00  0.00    -0.279 OA
ATOM   1635  P     U A  68     -29.967 -13.134  26.704  1.00  0.00     0.408 P 
ATOM   1636  OP1   U A  68     -30.553 -12.682  25.418  1.00  0.00    -0.624 OA
ATOM   1637  OP2   U A  68     -28.728 -13.952  26.699  1.00  0.00    -0.624 OA
ATOM   1638  O5'   U A  68     -29.717 -11.849  27.613  1.00  0.00    -0.287 OA
ATOM   1639  C5'   U A  68     -30.765 -10.918  27.877  1.00  0.00     0.216 C 
ATOM   1640  C4'   U A  68     -30.608  -9.692  27.006  1.00  0.00     0.180 C 
ATOM   1641  O4'   U A  68     -30.828  -8.512  27.827  1.00  0.00    -0.353 OA
ATOM   1642  C1'   U A  68     -29.602  -7.829  28.023  1.00  0.00     0.264 C 
ATOM   1643  N1    U A  68     -29.489  -7.488  29.448  1.00  0.00    -0.280 N 
ATOM   1644  C6    U A  68     -29.393  -8.468  30.410  1.00  0.00     0.104 A 
ATOM   1645  C2    U A  68     -29.484  -6.149  29.791  1.00  0.00     0.331 A 
ATOM   1646  O2    U A  68     -29.567  -5.253  28.968  1.00  0.00    -0.246 OA
ATOM   1647  N3    U A  68     -29.383  -5.895  31.134  1.00  0.00    -0.275 N 
ATOM   1648  H3    U A  68     -29.377  -4.924  31.405  1.00  0.00     0.173 HD
ATOM   1649  C4    U A  68     -29.288  -6.821  32.148  1.00  0.00     0.250 A 
ATOM   1650  O4    U A  68     -29.215  -6.433  33.313  1.00  0.00    -0.268 OA
ATOM   1651  C5    U A  68     -29.297  -8.182  31.713  1.00  0.00     0.092 A 
ATOM   1652  C2'   U A  68     -28.490  -8.742  27.505  1.00  0.00     0.199 C 
ATOM   1653  O2'   U A  68     -27.447  -7.940  26.984  1.00  0.00    -0.388 OA
ATOM   1654 'HO2   U A  68     -26.921  -8.493  26.405  1.00  0.00     0.210 HD
ATOM   1655  C3'   U A  68     -29.224  -9.487  26.399  1.00  0.00     0.198 C 
ATOM   1656  O3'   U A  68     -29.288  -8.727  25.194  1.00  0.00    -0.279 OA
ATOM   1657  P     U A  69     -29.392  -9.478  23.776  1.00  0.00     0.408 P 
ATOM   1658  OP1   U A  69     -30.802  -9.915  23.606  1.00  0.00    -0.624 OA
ATOM   1659  OP2   U A  69     -28.299 -10.480  23.692  1.00  0.00    -0.624 OA
ATOM   1660  O5'   U A  69     -29.100  -8.328  22.712  1.00  0.00    -0.287 OA
ATOM   1661  C5'   U A  69     -29.556  -6.993  22.928  1.00  0.00     0.216 C 
ATOM   1662  C4'   U A  69     -28.380  -6.068  23.141  1.00  0.00     0.180 C 
ATOM   1663  O4'   U A  69     -28.878  -4.702  23.206  1.00  0.00    -0.353 OA
ATOM   1664  C1'   U A  69     -28.564  -4.136  24.461  1.00  0.00     0.264 C 
ATOM   1665  N1    U A  69     -29.701  -3.312  24.893  1.00  0.00    -0.280 N 
ATOM   1666  C6    U A  69     -30.913  -3.881  25.215  1.00  0.00     0.104 A 
ATOM   1667  C2    U A  69     -29.517  -1.943  24.965  1.00  0.00     0.331 A 
ATOM   1668  O2    U A  69     -28.462  -1.400  24.691  1.00  0.00    -0.246 OA
ATOM   1669  N3    U A  69     -30.617  -1.231  25.370  1.00  0.00    -0.275 N 
ATOM   1670  H3    U A  69     -30.509  -0.230  25.417  1.00  0.00     0.173 HD
ATOM   1671  C4    U A  69     -31.852  -1.733  25.707  1.00  0.00     0.250 A 
ATOM   1672  O4    U A  69     -32.743  -0.960  26.056  1.00  0.00    -0.268 OA
ATOM   1673  C5    U A  69     -31.962  -3.155  25.610  1.00  0.00     0.092 A 
ATOM   1674  C2'   U A  69     -28.242  -5.295  25.400  1.00  0.00     0.199 C 
ATOM   1675  O2'   U A  69     -27.312  -4.847  26.368  1.00  0.00    -0.388 OA
ATOM   1676 'HO2   U A  69     -26.457  -5.193  26.110  1.00  0.00     0.210 HD
ATOM   1677  C3'   U A  69     -27.604  -6.289  24.437  1.00  0.00     0.198 C 
ATOM   1678  O3'   U A  69     -26.210  -6.043  24.261  1.00  0.00    -0.279 OA
ATOM   1679  P     G A  70     -25.211  -7.273  23.981  1.00  0.00     0.408 P 
ATOM   1680  OP1   G A  70     -25.148  -7.465  22.509  1.00  0.00    -0.624 OA
ATOM   1681  OP2   G A  70     -25.600  -8.410  24.853  1.00  0.00    -0.624 OA
ATOM   1682  O5'   G A  70     -23.793  -6.735  24.469  1.00  0.00    -0.287 OA
ATOM   1683  C5'   G A  70     -23.374  -5.399  24.189  1.00  0.00     0.216 C 
ATOM   1684  C4'   G A  70     -22.173  -5.039  25.034  1.00  0.00     0.180 C 
ATOM   1685  O4'   G A  70     -22.644  -4.430  26.268  1.00  0.00    -0.353 OA
ATOM   1686  C1'   G A  70     -21.911  -4.940  27.366  1.00  0.00     0.262 C 
ATOM   1687  N9    G A  70     -22.807  -5.752  28.183  1.00  0.00    -0.293 N 
ATOM   1688  C4    G A  70     -22.511  -6.321  29.399  1.00  0.00     0.187 A 
ATOM   1689  N3    G A  70     -21.335  -6.227  30.053  1.00  0.00    -0.044 NA
ATOM   1690  C2    G A  70     -21.354  -6.882  31.199  1.00  0.00     0.703 A 
ATOM   1691  N2    G A  70     -20.263  -6.895  31.973  1.00  0.00    -0.233 N 
ATOM   1692  H21   G A  70     -19.439  -6.401  31.663  1.00  0.00     0.174 HD
ATOM   1693  H22   G A  70     -20.260  -7.396  32.848  1.00  0.00     0.174 HD
ATOM   1694  N1    G A  70     -22.441  -7.573  31.672  1.00  0.00    -0.153 N 
ATOM   1695  H1    G A  70     -22.354  -8.039  32.561  1.00  0.00     0.187 HD
ATOM   1696  C6    G A  70     -23.663  -7.683  31.017  1.00  0.00     0.292 A 
ATOM   1697  O6    G A  70     -24.579  -8.331  31.535  1.00  0.00    -0.265 OA
ATOM   1698  C5    G A  70     -23.657  -6.985  29.780  1.00  0.00     0.173 A 
ATOM   1699  N7    G A  70     -24.654  -6.839  28.825  1.00  0.00    -0.234 NA
ATOM   1700  C8    G A  70     -24.104  -6.102  27.899  1.00  0.00     0.214 A 
ATOM   1701  C2'   G A  70     -20.724  -5.716  26.798  1.00  0.00     0.199 C 
ATOM   1702  O2'   G A  70     -19.656  -4.811  26.589  1.00  0.00    -0.388 OA
ATOM   1703 'HO2   G A  70     -20.026  -3.928  26.600  1.00  0.00     0.210 HD
ATOM   1704  C3'   G A  70     -21.304  -6.210  25.478  1.00  0.00     0.198 C 
ATOM   1705  O3'   G A  70     -20.291  -6.506  24.519  1.00  0.00    -0.279 OA
ATOM   1706  P     U A  71     -19.526  -7.920  24.575  1.00  0.00     0.408 P 
ATOM   1707  OP1   U A  71     -18.532  -7.921  23.473  1.00  0.00    -0.624 OA
ATOM   1708  OP2   U A  71     -20.540  -9.002  24.648  1.00  0.00    -0.624 OA
ATOM   1709  O5'   U A  71     -18.733  -7.877  25.957  1.00  0.00    -0.287 OA
ATOM   1710  C5'   U A  71     -17.851  -8.936  26.333  1.00  0.00     0.216 C 
ATOM   1711  C4'   U A  71     -18.047  -9.285  27.790  1.00  0.00     0.180 C 
ATOM   1712  O4'   U A  71     -18.816 -10.517  27.869  1.00  0.00    -0.353 OA
ATOM   1713  C1'   U A  71     -18.003 -11.559  28.378  1.00  0.00     0.264 C 
ATOM   1714  N1    U A  71     -18.244 -12.766  27.573  1.00  0.00    -0.280 N 
ATOM   1715  C6    U A  71     -18.817 -13.886  28.131  1.00  0.00     0.104 A 
ATOM   1716  C2    U A  71     -17.876 -12.745  26.238  1.00  0.00     0.331 A 
ATOM   1717  O2    U A  71     -17.363 -11.779  25.704  1.00  0.00    -0.246 OA
ATOM   1718  N3    U A  71     -18.132 -13.902  25.548  1.00  0.00    -0.275 N 
ATOM   1719  H3    U A  71     -17.880 -13.907  24.571  1.00  0.00     0.173 HD
ATOM   1720  C4    U A  71     -18.702 -15.053  26.043  1.00  0.00     0.250 A 
ATOM   1721  O4    U A  71     -18.864 -16.016  25.294  1.00  0.00    -0.268 OA
ATOM   1722  C5    U A  71     -19.050 -14.997  27.428  1.00  0.00     0.092 A 
ATOM   1723  C2'   U A  71     -16.561 -11.057  28.346  1.00  0.00     0.199 C 
ATOM   1724  O2'   U A  71     -15.852 -11.647  29.421  1.00  0.00    -0.388 OA
ATOM   1725 'HO2   U A  71     -15.704 -10.954  30.065  1.00  0.00     0.210 HD
ATOM   1726  C3'   U A  71     -16.769  -9.565  28.573  1.00  0.00     0.198 C 
ATOM   1727  O3'   U A  71     -16.917  -9.250  29.956  1.00  0.00    -0.279 OA
ATOM   1728  P     C A  72     -16.578  -7.768  30.481  1.00  0.00     0.408 P 
ATOM   1729  OP1   C A  72     -16.076  -7.898  31.873  1.00  0.00    -0.624 OA
ATOM   1730  OP2   C A  72     -17.749  -6.897  30.203  1.00  0.00    -0.624 OA
ATOM   1731  O5'   C A  72     -15.370  -7.291  29.556  1.00  0.00    -0.287 OA
ATOM   1732  C5'   C A  72     -14.047  -7.791  29.753  1.00  0.00     0.216 C 
ATOM   1733  C4'   C A  72     -13.049  -6.919  29.028  1.00  0.00     0.180 C 
ATOM   1734  O4'   C A  72     -13.209  -7.123  27.598  1.00  0.00    -0.353 OA
ATOM   1735  C1'   C A  72     -13.145  -5.879  26.924  1.00  0.00     0.264 C 
ATOM   1736  N1    C A  72     -14.462  -5.605  26.328  1.00  0.00    -0.278 N 
ATOM   1737  C6    C A  72     -15.610  -6.021  26.945  1.00  0.00     0.102 A 
ATOM   1738  C2    C A  72     -14.525  -4.908  25.118  1.00  0.00     0.352 A 
ATOM   1739  O2    C A  72     -13.470  -4.543  24.580  1.00  0.00    -0.244 OA
ATOM   1740  N3    C A  72     -15.731  -4.651  24.565  1.00  0.00    -0.177 NA
ATOM   1741  C4    C A  72     -16.844  -5.062  25.175  1.00  0.00     0.128 A 
ATOM   1742  N4    C A  72     -18.008  -4.785  24.594  1.00  0.00    -0.384 N 
ATOM   1743  H41   C A  72     -18.868  -5.081  25.033  1.00  0.00     0.157 HD
ATOM   1744  H42   C A  72     -18.028  -4.282  23.721  1.00  0.00     0.157 HD
ATOM   1745  C5    C A  72     -16.810  -5.775  26.408  1.00  0.00     0.067 A 
ATOM   1746  C2'   C A  72     -12.695  -4.828  27.938  1.00  0.00     0.199 C 
ATOM   1747  O2'   C A  72     -11.281  -4.767  27.938  1.00  0.00    -0.388 OA
ATOM   1748 'HO2   C A  72     -10.987  -5.107  28.784  1.00  0.00     0.210 HD
ATOM   1749  C3'   C A  72     -13.222  -5.421  29.240  1.00  0.00     0.198 C 
ATOM   1750  O3'   C A  72     -12.489  -4.972  30.376  1.00  0.00    -0.279 OA
ATOM   1751  P     C A  73     -12.711  -3.480  30.936  1.00  0.00     0.408 P 
ATOM   1752  OP1   C A  73     -13.037  -3.598  32.380  1.00  0.00    -0.624 OA
ATOM   1753  OP2   C A  73     -13.646  -2.765  30.028  1.00  0.00    -0.624 OA
ATOM   1754  O5'   C A  73     -11.274  -2.804  30.807  1.00  0.00    -0.287 OA
ATOM   1755  C5'   C A  73     -10.089  -3.515  31.169  1.00  0.00     0.216 C 
ATOM   1756  C4'   C A  73      -8.938  -2.552  31.355  1.00  0.00     0.180 C 
ATOM   1757  O4'   C A  73      -8.572  -2.010  30.056  1.00  0.00    -0.353 OA
ATOM   1758  C1'   C A  73      -8.926  -0.641  29.989  1.00  0.00     0.264 C 
ATOM   1759  N1    C A  73      -9.613  -0.402  28.709  1.00  0.00    -0.278 N 
ATOM   1760  C6    C A  73     -10.495  -1.319  28.206  1.00  0.00     0.102 A 
ATOM   1761  C2    C A  73      -9.353   0.781  28.012  1.00  0.00     0.352 A 
ATOM   1762  O2    C A  73      -8.546   1.592  28.487  1.00  0.00    -0.244 OA
ATOM   1763  N3    C A  73      -9.984   1.010  26.839  1.00  0.00    -0.177 NA
ATOM   1764  C4    C A  73     -10.846   0.111  26.361  1.00  0.00     0.128 A 
ATOM   1765  N4    C A  73     -11.446   0.383  25.204  1.00  0.00    -0.384 N 
ATOM   1766  H41   C A  73     -12.104  -0.276  24.816  1.00  0.00     0.157 HD
ATOM   1767  H42   C A  73     -11.244   1.246  24.723  1.00  0.00     0.157 HD
ATOM   1768  C5    C A  73     -11.128  -1.105  27.047  1.00  0.00     0.067 A 
ATOM   1769  C2'   C A  73      -9.784  -0.330  31.215  1.00  0.00     0.199 C 
ATOM   1770  O2'   C A  73      -9.523   0.998  31.629  1.00  0.00    -0.388 OA
ATOM   1771 'HO2   C A  73      -8.813   0.952  32.269  1.00  0.00     0.210 HD
ATOM   1772  C3'   C A  73      -9.239  -1.336  32.223  1.00  0.00     0.198 C 
ATOM   1773  O3'   C A  73      -8.069  -0.851  32.880  1.00  0.00    -0.279 OA
ATOM   1774  P     A A  74      -7.490  -1.628  34.164  1.00  0.00     0.408 P 
ATOM   1775  OP1   A A  74      -8.282  -2.875  34.338  1.00  0.00    -0.624 OA
ATOM   1776  OP2   A A  74      -7.397  -0.659  35.284  1.00  0.00    -0.624 OA
ATOM   1777  O5'   A A  74      -6.008  -2.029  33.732  1.00  0.00    -0.287 OA
ATOM   1778  C5'   A A  74      -5.515  -3.353  33.930  1.00  0.00     0.216 C 
ATOM   1779  C4'   A A  74      -4.022  -3.389  33.706  1.00  0.00     0.180 C 
ATOM   1780  O4'   A A  74      -3.384  -3.831  34.936  1.00  0.00    -0.353 OA
ATOM   1781  C1'   A A  74      -2.676  -5.031  34.705  1.00  0.00     0.262 C 
ATOM   1782  N9    A A  74      -2.841  -5.893  35.876  1.00  0.00    -0.294 N 
ATOM   1783  C4    A A  74      -1.986  -5.977  36.948  1.00  0.00     0.167 A 
ATOM   1784  N3    A A  74      -0.841  -5.295  37.132  1.00  0.00    -0.222 NA
ATOM   1785  C2    A A  74      -0.274  -5.634  38.288  1.00  0.00     0.237 A 
ATOM   1786  N1    A A  74      -0.690  -6.512  39.210  1.00  0.00    -0.222 NA
ATOM   1787  C6    A A  74      -1.843  -7.180  38.992  1.00  0.00     0.155 A 
ATOM   1788  N6    A A  74      -2.254  -8.055  39.910  1.00  0.00    -0.382 N 
ATOM   1789  H61   A A  74      -3.114  -8.566  39.768  1.00  0.00     0.157 HD
ATOM   1790  H62   A A  74      -1.701  -8.206  40.740  1.00  0.00     0.157 HD
ATOM   1791  C5    A A  74      -2.541  -6.910  37.803  1.00  0.00     0.149 A 
ATOM   1792  N7    A A  74      -3.729  -7.406  37.283  1.00  0.00    -0.236 NA
ATOM   1793  C8    A A  74      -3.861  -6.774  36.142  1.00  0.00     0.214 A 
ATOM   1794  C2'   A A  74      -3.222  -5.621  33.408  1.00  0.00     0.199 C 
ATOM   1795  O2'   A A  74      -2.194  -6.365  32.779  1.00  0.00    -0.388 OA
ATOM   1796 'HO2   A A  74      -1.656  -5.743  32.289  1.00  0.00     0.210 HD
ATOM   1797  C3'   A A  74      -3.550  -4.357  32.622  1.00  0.00     0.198 C 
ATOM   1798  O3'   A A  74      -2.420  -3.839  31.924  1.00  0.00    -0.279 OA
ATOM   1799  P     A A  75      -2.315  -4.012  30.328  1.00  0.00     0.408 P 
ATOM   1800  OP1   A A  75      -3.661  -3.755  29.753  1.00  0.00    -0.624 OA
ATOM   1801  OP2   A A  75      -1.632  -5.300  30.048  1.00  0.00    -0.624 OA
ATOM   1802  O5'   A A  75      -1.354  -2.825  29.874  1.00  0.00    -0.287 OA
ATOM   1803  C5'   A A  75       0.020  -2.796  30.264  1.00  0.00     0.216 C 
ATOM   1804  C4'   A A  75       0.338  -1.490  30.956  1.00  0.00     0.180 C 
ATOM   1805  O4'   A A  75      -0.430  -0.427  30.326  1.00  0.00    -0.353 OA
ATOM   1806  C1'   A A  75      -1.440   0.024  31.210  1.00  0.00     0.262 C 
ATOM   1807  N9    A A  75      -2.696   0.112  30.464  1.00  0.00    -0.294 N 
ATOM   1808  C4    A A  75      -2.915   0.859  29.332  1.00  0.00     0.167 A 
ATOM   1809  N3    A A  75      -2.034   1.647  28.692  1.00  0.00    -0.222 NA
ATOM   1810  C2    A A  75      -2.599   2.218  27.630  1.00  0.00     0.237 A 
ATOM   1811  N1    A A  75      -3.853   2.100  27.172  1.00  0.00    -0.222 NA
ATOM   1812  C6    A A  75      -4.712   1.301  27.839  1.00  0.00     0.155 A 
ATOM   1813  N6    A A  75      -5.959   1.187  27.382  1.00  0.00    -0.382 N 
ATOM   1814  H61   A A  75      -6.621   0.596  27.866  1.00  0.00     0.157 HD
ATOM   1815  H62   A A  75      -6.242   1.694  26.557  1.00  0.00     0.157 HD
ATOM   1816  C5    A A  75      -4.235   0.638  28.983  1.00  0.00     0.149 A 
ATOM   1817  N7    A A  75      -4.839  -0.235  29.878  1.00  0.00    -0.236 NA
ATOM   1818  C8    A A  75      -3.887  -0.516  30.734  1.00  0.00     0.214 A 
ATOM   1819  C2'   A A  75      -1.481  -0.948  32.388  1.00  0.00     0.198 C 
ATOM   1820  O2'   A A  75      -1.820  -0.222  33.556  1.00  0.00    -0.388 OA
ATOM   1821 'HO2   A A  75      -1.226  -0.508  34.251  1.00  0.00     0.210 HD
ATOM   1822  C3'   A A  75      -0.035  -1.427  32.431  1.00  0.00     0.182 C 
ATOM   1823  O3'   A A  75       0.818  -0.540  33.164  1.00  0.00    -0.390 OA
ATOM   1824 'HO3   A A  75       0.760   0.322  32.745  1.00  0.00     0.210 HD
ENDROOT
TORSDOF 576
ENDMDL
MODEL 3
REMARK VINA RESULT:     -19.7      8.842     33.158
REMARK  0 active torsions:
REMARK  status: ('A' for Active; 'I' for Inactive)
REMARK       I    between atoms: O5'_2  and  C5'_3 
REMARK       I    between atoms: C5'_3  and  C4'_4 
REMARK       I    between atoms: C1'_6  and  N9_7 
REMARK       I    between atoms: C2_10  and  N2_11 
REMARK       I    between atoms: C2'_21  and  O2'_22 
REMARK       I    between atoms: C3'_24  and  O3'_25 
REMARK       I    between atoms: O3'_25  and  P_26 
REMARK       I    between atoms: P_26  and  O5'_29 
REMARK       I    between atoms: O5'_29  and  C5'_30 
REMARK       I    between atoms: C5'_30  and  C4'_31 
REMARK       I    between atoms: C1'_33  and  N9_34 
REMARK       I    between atoms: C2_37  and  N2_38 
REMARK       I    between atoms: C2'_48  and  O2'_49 
REMARK       I    between atoms: C3'_51  and  O3'_52 
REMARK       I    between atoms: O3'_52  and  P_53 
REMARK       I    between atoms: P_53  and  O5'_56 
REMARK       I    between atoms: O5'_56  and  C5'_57 
REMARK       I    between atoms: C5'_57  and  C4'_58 
REMARK       I    between atoms: C1'_60  and  N9_61 
REMARK       I    between atoms: C2_64  and  N2_65 
REMARK       I    between atoms: C2'_75  and  O2'_76 
REMARK       I    between atoms: C3'_78  and  O3'_79 
REMARK       I    between atoms: O3'_79  and  P_80 
REMARK       I    between atoms: P_80  and  O5'_83 
REMARK       I    between atoms: O5'_83  and  C5'_84 
REMARK       I    between atoms: C5'_84  and  C4'_85 
REMARK       I    between atoms: C1'_87  and  N1_88 
REMARK       I    between atoms: C4_93  and  N4_94 
REMARK       I    between atoms: C2'_98  and  O2'_99 
REMARK       I    between atoms: C3'_101  and  O3'_102 
REMARK       I    between atoms: O3'_102  and  P_103 
REMARK       I    between atoms: P_103  and  O5'_106 
REMARK       I    between atoms: O5'_106  and  C5'_107 
REMARK       I    between atoms: C5'_107  and  C4'_108 
REMARK       I    between atoms: C1'_110  and  N9_111 
REMARK       I    between atoms: C6_116  and  N6_117 
REMARK       I    between atoms: C2'_123  and  O2'_124 
REMARK       I    between atoms: C3'_126  and  O3'_127 
REMARK       I    between atoms: O3'_127  and  P_128 
REMARK       I    between atoms: P_128  and  O5'_131 
REMARK       I    between atoms: O5'_131  and  C5'_132 
REMARK       I    between atoms: C5'_132  and  C4'_133 
REMARK       I    between atoms: C1'_135  and  N1_136 
REMARK       I    between atoms: C2'_145  and  O2'_146 
REMARK       I    between atoms: C3'_148  and  O3'_149 
REMARK       I    between atoms: O3'_149  and  P_150 
REMARK       I    between atoms: P_150  and  O5'_153 
REMARK       I    between atoms: O5'_153  and  C5'_154 
REMARK       I    between atoms: C5'_154  and  C4'_155 
REMARK       I    between atoms: C1'_157  and  N9_158 
REMARK       I    between atoms: C2_161  and  N2_162 
REMARK       I    between atoms: C2'_172  and  O2'_173 
REMARK       I    between atoms: C3'_175  and  O3'_176 
REMARK       I    between atoms: O3'_176  and  P_177 
REMARK       I    between atoms: P_177  and  O5'_180 
REMARK       I    between atoms: O5'_180  and  C5'_181 
REMARK       I    between atoms: C5'_181  and  C4'_182 
REMARK       I    between atoms: C1'_184  and  N1_185 
REMARK       I    between atoms: C2'_194  and  O2'_195 
REMARK       I    between atoms: C3'_197  and  O3'_198 
REMARK       I    between atoms: O3'_198  and  P_199 
REMARK       I    between atoms: P_199  and  O5'_202 
REMARK       I    between atoms: O5'_202  and  C5'_203 
REMARK       I    between atoms: C5'_203  and  C4'_204 
REMARK       I    between atoms: C1'_206  and  N9_207 
REMARK       I    between atoms: C2_210  and  N2_211 
REMARK       I    between atoms: C2'_221  and  O2'_222 
REMARK       I    between atoms: C3'_224  and  O3'_225 
REMARK       I    between atoms: O3'_225  and  P_226 
REMARK       I    between atoms: P_226  and  O5'_229 
REMARK       I    between atoms: O5'_229  and  C5'_230 
REMARK       I    between atoms: C5'_230  and  C4'_231 
REMARK       I    between atoms: C1'_233  and  N9_234 
REMARK       I    between atoms: C2_237  and  N2_238 
REMARK       I    between atoms: C2'_248  and  O2'_249 
REMARK       I    between atoms: C3'_251  and  O3'_252 
REMARK       I    between atoms: O3'_252  and  P_253 
REMARK       I    between atoms: P_253  and  O5'_256 
REMARK       I    between atoms: O5'_256  and  C5'_257 
REMARK       I    between atoms: C5'_257  and  C4'_258 
REMARK       I    between atoms: C1'_260  and  N1_261 
REMARK       I    between atoms: C2'_270  and  O2'_271 
REMARK       I    between atoms: C3'_273  and  O3'_274 
REMARK       I    between atoms: O3'_274  and  P_275 
REMARK       I    between atoms: P_275  and  O5'_278 
REMARK       I    between atoms: O5'_278  and  C5'_279 
REMARK       I    between atoms: C5'_279  and  C4'_280 
REMARK       I    between atoms: C1'_282  and  N9_283 
REMARK       I    between atoms: C2_286  and  N2_287 
REMARK       I    between atoms: C2'_297  and  O2'_298 
REMARK       I    between atoms: C3'_300  and  O3'_301 
REMARK       I    between atoms: O3'_301  and  P_302 
REMARK       I    between atoms: P_302  and  O5'_305 
REMARK       I    between atoms: O5'_305  and  C5'_306 
REMARK       I    between atoms: C5'_306  and  C4'_307 
REMARK       I    between atoms: C1'_309  and  N1_310 
REMARK       I    between atoms: C2'_319  and  O2'_320 
REMARK       I    between atoms: C3'_322  and  O3'_323 
REMARK       I    between atoms: O3'_323  and  P_324 
REMARK       I    between atoms: P_324  and  O5'_327 
REMARK       I    between atoms: O5'_327  and  C5'_328 
REMARK       I    between atoms: C5'_328  and  C4'_329 
REMARK       I    between atoms: C1'_331  and  N9_332 
REMARK       I    between atoms: C6_337  and  N6_338 
REMARK       I    between atoms: C2'_344  and  O2'_345 
REMARK       I    between atoms: C3'_347  and  O3'_348 
REMARK       I    between atoms: O3'_348  and  P_349 
REMARK       I    between atoms: P_349  and  O5'_352 
REMARK       I    between atoms: O5'_352  and  C5'_353 
REMARK       I    between atoms: C5'_353  and  C4'_354 
REMARK       I    between atoms: C1'_356  and  N9_357 
REMARK       I    between atoms: C2_360  and  N2_361 
REMARK       I    between atoms: C2'_371  and  O2'_372 
REMARK       I    between atoms: C3'_374  and  O3'_375 
REMARK       I    between atoms: O3'_375  and  P_376 
REMARK       I    between atoms: P_376  and  O5'_379 
REMARK       I    between atoms: O5'_379  and  C5'_380 
REMARK       I    between atoms: C5'_380  and  C4'_381 
REMARK       I    between atoms: C1'_383  and  N9_384 
REMARK       I    between atoms: C6_389  and  N6_390 
REMARK       I    between atoms: C2'_396  and  O2'_397 
REMARK       I    between atoms: C3'_399  and  O3'_400 
REMARK       I    between atoms: O3'_400  and  P_401 
REMARK       I    between atoms: P_401  and  O5'_404 
REMARK       I    between atoms: O5'_404  and  C5'_405 
REMARK       I    between atoms: C5'_405  and  C4'_406 
REMARK       I    between atoms: C1'_408  and  N1_409 
REMARK       I    between atoms: C2'_418  and  O2'_419 
REMARK       I    between atoms: C3'_421  and  O3'_422 
REMARK       I    between atoms: O3'_422  and  P_423 
REMARK       I    between atoms: P_423  and  O5'_426 
REMARK       I    between atoms: O5'_426  and  C5'_427 
REMARK       I    between atoms: C5'_427  and  C4'_428 
REMARK       I    between atoms: C1'_430  and  N9_431 
REMARK       I    between atoms: C2_434  and  N2_435 
REMARK       I    between atoms: C2'_445  and  O2'_446 
REMARK       I    between atoms: C3'_448  and  O3'_449 
REMARK       I    between atoms: O3'_449  and  P_450 
REMARK       I    between atoms: P_450  and  O5'_453 
REMARK       I    between atoms: O5'_453  and  C5'_454 
REMARK       I    between atoms: C5'_454  and  C4'_455 
REMARK       I    between atoms: C1'_457  and  N9_458 
REMARK       I    between atoms: C2_461  and  N2_462 
REMARK       I    between atoms: C2'_472  and  O2'_473 
REMARK       I    between atoms: C3'_475  and  O3'_476 
REMARK       I    between atoms: O3'_476  and  P_477 
REMARK       I    between atoms: P_477  and  O5'_480 
REMARK       I    between atoms: O5'_480  and  C5'_481 
REMARK       I    between atoms: C5'_481  and  C4'_482 
REMARK       I    between atoms: C1'_484  and  N1_485 
REMARK       I    between atoms: C2'_494  and  O2'_495 
REMARK       I    between atoms: C3'_497  and  O3'_498 
REMARK       I    between atoms: O3'_498  and  P_499 
REMARK       I    between atoms: P_499  and  O5'_502 
REMARK       I    between atoms: O5'_502  and  C5'_503 
REMARK       I    between atoms: C5'_503  and  C4'_504 
REMARK       I    between atoms: C1'_506  and  N1_507 
REMARK       I    between atoms: C2'_516  and  O2'_517 
REMARK       I    between atoms: C3'_519  and  O3'_520 
REMARK       I    between atoms: O3'_520  and  P_521 
REMARK       I    between atoms: P_521  and  O5'_524 
REMARK       I    between atoms: O5'_524  and  C5'_525 
REMARK       I    between atoms: C5'_525  and  C4'_526 
REMARK       I    between atoms: C1'_528  and  N9_529 
REMARK       I    between atoms: C6_534  and  N6_535 
REMARK       I    between atoms: C2'_541  and  O2'_542 
REMARK       I    between atoms: C3'_544  and  O3'_545 
REMARK       I    between atoms: O3'_545  and  P_546 
REMARK       I    between atoms: P_546  and  O5'_549 
REMARK       I    between atoms: O5'_549  and  C5'_550 
REMARK       I    between atoms: C5'_550  and  C4'_551 
REMARK       I    between atoms: C1'_553  and  N1_554 
REMARK       I    between atoms: C2'_563  and  O2'_564 
REMARK       I    between atoms: C3'_566  and  O3'_567 
REMARK       I    between atoms: O3'_567  and  P_568 
REMARK       I    between atoms: P_568  and  O5'_571 
REMARK       I    between atoms: O5'_571  and  C5'_572 
REMARK       I    between atoms: C5'_572  and  C4'_573 
REMARK       I    between atoms: C1'_575  and  N1_576 
REMARK       I    between atoms: C4_581  and  N4_582 
REMARK       I    between atoms: C2'_586  and  O2'_587 
REMARK       I    between atoms: C3'_589  and  O3'_590 
REMARK       I    between atoms: O3'_590  and  P_591 
REMARK       I    between atoms: P_591  and  O5'_594 
REMARK       I    between atoms: O5'_594  and  C5'_595 
REMARK       I    between atoms: C5'_595  and  C4'_596 
REMARK       I    between atoms: C1'_598  and  N9_599 
REMARK       I    between atoms: C6_604  and  N6_605 
REMARK       I    between atoms: C2'_611  and  O2'_612 
REMARK       I    between atoms: C3'_614  and  O3'_615 
REMARK       I    between atoms: O3'_615  and  P_616 
REMARK       I    between atoms: P_616  and  O5'_619 
REMARK       I    between atoms: O5'_619  and  C5'_620 
REMARK       I    between atoms: C5'_620  and  C4'_621 
REMARK       I    between atoms: C1'_623  and  N1_624 
REMARK       I    between atoms: C4_629  and  N4_630 
REMARK       I    between atoms: C2'_634  and  O2'_635 
REMARK       I    between atoms: C3'_637  and  O3'_638 
REMARK       I    between atoms: O3'_638  and  P_639 
REMARK       I    between atoms: P_639  and  O5'_642 
REMARK       I    between atoms: O5'_642  and  C5'_643 
REMARK       I    between atoms: C5'_643  and  C4'_644 
REMARK       I    between atoms: C1'_646  and  N9_647 
REMARK       I    between atoms: C2_650  and  N2_651 
REMARK       I    between atoms: C2'_661  and  O2'_662 
REMARK       I    between atoms: C3'_664  and  O3'_665 
REMARK       I    between atoms: O3'_665  and  P_666 
REMARK       I    between atoms: P_666  and  O5'_669 
REMARK       I    between atoms: O5'_669  and  C5'_670 
REMARK       I    between atoms: C5'_670  and  C4'_671 
REMARK       I    between atoms: C1'_673  and  N1_674 
REMARK       I    between atoms: C4_679  and  N4_680 
REMARK       I    between atoms: C2'_684  and  O2'_685 
REMARK       I    between atoms: C3'_687  and  O3'_688 
REMARK       I    between atoms: O3'_688  and  P_689 
REMARK       I    between atoms: P_689  and  O5'_692 
REMARK       I    between atoms: O5'_692  and  C5'_693 
REMARK       I    between atoms: C5'_693  and  C4'_694 
REMARK       I    between atoms: C1'_696  and  N1_697 
REMARK       I    between atoms: C2'_706  and  O2'_707 
REMARK       I    between atoms: C3'_709  and  O3'_710 
REMARK       I    between atoms: O3'_710  and  P_711 
REMARK       I    between atoms: P_711  and  O5'_714 
REMARK       I    between atoms: O5'_714  and  C5'_715 
REMARK       I    between atoms: C5'_715  and  C4'_716 
REMARK       I    between atoms: C1'_718  and  N1_719 
REMARK       I    between atoms: C2'_728  and  O2'_729 
REMARK       I    between atoms: C3'_731  and  O3'_732 
REMARK       I    between atoms: O3'_732  and  P_733 
REMARK       I    between atoms: P_733  and  O5'_736 
REMARK       I    between atoms: O5'_736  and  C5'_737 
REMARK       I    between atoms: C5'_737  and  C4'_738 
REMARK       I    between atoms: C1'_740  and  N1_741 
REMARK       I    between atoms: C4_746  and  N4_747 
REMARK       I    between atoms: C2'_751  and  O2'_752 
REMARK       I    between atoms: C3'_754  and  O3'_755 
REMARK       I    between atoms: O3'_755  and  P_756 
REMARK       I    between atoms: P_756  and  O5'_759 
REMARK       I    between atoms: O5'_759  and  C5'_760 
REMARK       I    between atoms: C5'_760  and  C4'_761 
REMARK       I    between atoms: C1'_763  and  N1_764 
REMARK       I    between atoms: C4_769  and  N4_770 
REMARK       I    between atoms: C2'_774  and  O2'_775 
REMARK       I    between atoms: C3'_777  and  O3'_778 
REMARK       I    between atoms: O3'_778  and  P_779 
REMARK       I    between atoms: P_779  and  O5'_782 
REMARK       I    between atoms: O5'_782  and  C5'_783 
REMARK       I    between atoms: C5'_783  and  C4'_784 
REMARK       I    between atoms: C1'_786  and  N1_787 
REMARK       I    between atoms: C2'_796  and  O2'_797 
REMARK       I    between atoms: C3'_799  and  O3'_800 
REMARK       I    between atoms: O3'_800  and  P_801 
REMARK       I    between atoms: P_801  and  O5'_804 
REMARK       I    between atoms: O5'_804  and  C5'_805 
REMARK       I    between atoms: C5'_805  and  C4'_806 
REMARK       I    between atoms: C1'_808  and  N1_809 
REMARK       I    between atoms: C2'_818  and  O2'_819 
REMARK       I    between atoms: C3'_821  and  O3'_822 
REMARK       I    between atoms: O3'_822  and  P_823 
REMARK       I    between atoms: P_823  and  O5'_826 
REMARK       I    between atoms: O5'_826  and  C5'_827 
REMARK       I    between atoms: C5'_827  and  C4'_828 
REMARK       I    between atoms: C1'_830  and  N9_831 
REMARK       I    between atoms: C6_836  and  N6_837 
REMARK       I    between atoms: C2'_843  and  O2'_844 
REMARK       I    between atoms: C3'_846  and  O3'_847 
REMARK       I    between atoms: O3'_847  and  P_848 
REMARK       I    between atoms: P_848  and  O5'_851 
REMARK       I    between atoms: O5'_851  and  C5'_852 
REMARK       I    between atoms: C5'_852  and  C4'_853 
REMARK       I    between atoms: C1'_855  and  N9_856 
REMARK       I    between atoms: C2_859  and  N2_860 
REMARK       I    between atoms: C2'_870  and  O2'_871 
REMARK       I    between atoms: C3'_873  and  O3'_874 
REMARK       I    between atoms: O3'_874  and  P_875 
REMARK       I    between atoms: P_875  and  O5'_878 
REMARK       I    between atoms: O5'_878  and  C5'_879 
REMARK       I    between atoms: C5'_879  and  C4'_880 
REMARK       I    between atoms: C1'_882  and  N1_883 
REMARK       I    between atoms: C4_888  and  N4_889 
REMARK       I    between atoms: C2'_893  and  O2'_894 
REMARK       I    between atoms: C3'_896  and  O3'_897 
REMARK       I    between atoms: O3'_897  and  P_898 
REMARK       I    between atoms: P_898  and  O5'_901 
REMARK       I    between atoms: O5'_901  and  C5'_902 
REMARK       I    between atoms: C5'_902  and  C4'_903 
REMARK       I    between atoms: C1'_905  and  N9_906 
REMARK       I    between atoms: C6_911  and  N6_912 
REMARK       I    between atoms: C2'_918  and  O2'_919 
REMARK       I    between atoms: C3'_921  and  O3'_922 
REMARK       I    between atoms: O3'_922  and  P_923 
REMARK       I    between atoms: P_923  and  O5'_926 
REMARK       I    between atoms: O5'_926  and  C5'_927 
REMARK       I    between atoms: C5'_927  and  C4'_928 
REMARK       I    between atoms: C1'_930  and  N1_931 
REMARK       I    between atoms: C2'_940  and  O2'_941 
REMARK       I    between atoms: C3'_943  and  O3'_944 
REMARK       I    between atoms: O3'_944  and  P_945 
REMARK       I    between atoms: P_945  and  O5'_948 
REMARK       I    between atoms: O5'_948  and  C5'_949 
REMARK       I    between atoms: C5'_949  and  C4'_950 
REMARK       I    between atoms: C1'_952  and  N9_953 
REMARK       I    between atoms: C2_956  and  N2_957 
REMARK       I    between atoms: C2'_967  and  O2'_968 
REMARK       I    between atoms: C3'_970  and  O3'_971 
REMARK       I    between atoms: O3'_971  and  P_972 
REMARK       I    between atoms: P_972  and  O5'_975 
REMARK       I    between atoms: O5'_975  and  C5'_976 
REMARK       I    between atoms: C5'_976  and  C4'_977 
REMARK       I    between atoms: C1'_979  and  N9_980 
REMARK       I    between atoms: C2_983  and  N2_984 
REMARK       I    between atoms: C2'_994  and  O2'_995 
REMARK       I    between atoms: C3'_997  and  O3'_998 
REMARK       I    between atoms: O3'_998  and  P_999 
REMARK       I    between atoms: P_999  and  O5'_1002 
REMARK       I    between atoms: O5'_1002  and  C5'_1003 
REMARK       I    between atoms: C5'_1003  and  C4'_1004 
REMARK       I    between atoms: C1'_1006  and  N9_1007 
REMARK       I    between atoms: C6_1012  and  N6_1013 
REMARK       I    between atoms: C2'_1019  and  O2'_1020 
REMARK       I    between atoms: C3'_1022  and  O3'_1023 
REMARK       I    between atoms: O3'_1023  and  P_1024 
REMARK       I    between atoms: P_1024  and  O5'_1027 
REMARK       I    between atoms: O5'_1027  and  C5'_1028 
REMARK       I    between atoms: C5'_1028  and  C4'_1029 
REMARK       I    between atoms: C1'_1031  and  N9_1032 
REMARK       I    between atoms: C6_1037  and  N6_1038 
REMARK       I    between atoms: C2'_1044  and  O2'_1045 
REMARK       I    between atoms: C3'_1047  and  O3'_1048 
REMARK       I    between atoms: O3'_1048  and  P_1049 
REMARK       I    between atoms: P_1049  and  O5'_1052 
REMARK       I    between atoms: O5'_1052  and  C5'_1053 
REMARK       I    between atoms: C5'_1053  and  C4'_1054 
REMARK       I    between atoms: C1'_1056  and  N9_1057 
REMARK       I    between atoms: C2_1060  and  N2_1061 
REMARK       I    between atoms: C2'_1071  and  O2'_1072 
REMARK       I    between atoms: C3'_1074  and  O3'_1075 
REMARK       I    between atoms: O3'_1075  and  P_1076 
REMARK       I    between atoms: P_1076  and  O5'_1079 
REMARK       I    between atoms: O5'_1079  and  C5'_1080 
REMARK       I    between atoms: C5'_1080  and  C4'_1081 
REMARK       I    between atoms: C1'_1083  and  N9_1084 
REMARK       I    between atoms: C6_1089  and  N6_1090 
REMARK       I    between atoms: C2'_1096  and  O2'_1097 
REMARK       I    between atoms: C3'_1099  and  O3'_1100 
REMARK       I    between atoms: O3'_1100  and  P_1101 
REMARK       I    between atoms: P_1101  and  O5'_1104 
REMARK       I    between atoms: O5'_1104  and  C5'_1105 
REMARK       I    between atoms: C5'_1105  and  C4'_1106 
REMARK       I    between atoms: C1'_1108  and  N9_1109 
REMARK       I    between atoms: C2_1112  and  N2_1113 
REMARK       I    between atoms: C2'_1123  and  O2'_1124 
REMARK       I    between atoms: C3'_1126  and  O3'_1127 
REMARK       I    between atoms: O3'_1127  and  P_1128 
REMARK       I    between atoms: P_1128  and  O5'_1131 
REMARK       I    between atoms: O5'_1131  and  C5'_1132 
REMARK       I    between atoms: C5'_1132  and  C4'_1133 
REMARK       I    between atoms: C1'_1135  and  N9_1136 
REMARK       I    between atoms: C2_1139  and  N2_1140 
REMARK       I    between atoms: C2'_1150  and  O2'_1151 
REMARK       I    between atoms: C3'_1153  and  O3'_1154 
REMARK       I    between atoms: O3'_1154  and  P_1155 
REMARK       I    between atoms: P_1155  and  O5'_1158 
REMARK       I    between atoms: O5'_1158  and  C5'_1159 
REMARK       I    between atoms: C5'_1159  and  C4'_1160 
REMARK       I    between atoms: C1'_1162  and  N1_1163 
REMARK       I    between atoms: C2'_1172  and  O2'_1173 
REMARK       I    between atoms: C3'_1175  and  O3'_1176 
REMARK       I    between atoms: O3'_1176  and  P_1177 
REMARK       I    between atoms: P_1177  and  O5'_1180 
REMARK       I    between atoms: O5'_1180  and  C5'_1181 
REMARK       I    between atoms: C5'_1181  and  C4'_1182 
REMARK       I    between atoms: C1'_1184  and  N1_1185 
REMARK       I    between atoms: C4_1190  and  N4_1191 
REMARK       I    between atoms: C2'_1195  and  O2'_1196 
REMARK       I    between atoms: C3'_1198  and  O3'_1199 
REMARK       I    between atoms: O3'_1199  and  P_1200 
REMARK       I    between atoms: P_1200  and  O5'_1203 
REMARK       I    between atoms: O5'_1203  and  C5'_1204 
REMARK       I    between atoms: C5'_1204  and  C4'_1205 
REMARK       I    between atoms: C1'_1207  and  N1_1208 
REMARK       I    between atoms: C4_1213  and  N4_1214 
REMARK       I    between atoms: C2'_1218  and  O2'_1219 
REMARK       I    between atoms: C3'_1221  and  O3'_1222 
REMARK       I    between atoms: O3'_1222  and  P_1223 
REMARK       I    between atoms: P_1223  and  O5'_1226 
REMARK       I    between atoms: O5'_1226  and  C5'_1227 
REMARK       I    between atoms: C5'_1227  and  C4'_1228 
REMARK       I    between atoms: C1'_1230  and  N1_1231 
REMARK       I    between atoms: C4_1236  and  N4_1237 
REMARK       I    between atoms: C2'_1241  and  O2'_1242 
REMARK       I    between atoms: C3'_1244  and  O3'_1245 
REMARK       I    between atoms: O3'_1245  and  P_1246 
REMARK       I    between atoms: P_1246  and  O5'_1249 
REMARK       I    between atoms: O5'_1249  and  C5'_1250 
REMARK       I    between atoms: C5'_1250  and  C4'_1251 
REMARK       I    between atoms: C1'_1253  and  N9_1254 
REMARK       I    between atoms: C6_1259  and  N6_1260 
REMARK       I    between atoms: C2'_1266  and  O2'_1267 
REMARK       I    between atoms: C3'_1269  and  O3'_1270 
REMARK       I    between atoms: O3'_1270  and  P_1271 
REMARK       I    between atoms: P_1271  and  O5'_1274 
REMARK       I    between atoms: O5'_1274  and  C5'_1275 
REMARK       I    between atoms: C5'_1275  and  C4'_1276 
REMARK       I    between atoms: C1'_1278  and  N9_1279 
REMARK       I    between atoms: C2_1282  and  N2_1283 
REMARK       I    between atoms: C2'_1293  and  O2'_1294 
REMARK       I    between atoms: C3'_1296  and  O3'_1297 
REMARK       I    between atoms: O3'_1297  and  P_1298 
REMARK       I    between atoms: P_1298  and  O5'_1301 
REMARK       I    between atoms: O5'_1301  and  C5'_1302 
REMARK       I    between atoms: C5'_1302  and  C4'_1303 
REMARK       I    between atoms: C1'_1305  and  N9_1306 
REMARK       I    between atoms: C6_1311  and  N6_1312 
REMARK       I    between atoms: C2'_1318  and  O2'_1319 
REMARK       I    between atoms: C3'_1321  and  O3'_1322 
REMARK       I    between atoms: O3'_1322  and  P_1323 
REMARK       I    between atoms: P_1323  and  O5'_1326 
REMARK       I    between atoms: O5'_1326  and  C5'_1327 
REMARK       I    between atoms: C5'_1327  and  C4'_1328 
REMARK       I    between atoms: C1'_1330  and  N1_1331 
REMARK       I    between atoms: C2'_1340  and  O2'_1341 
REMARK       I    between atoms: C3'_1343  and  O3'_1344 
REMARK       I    between atoms: O3'_1344  and  P_1345 
REMARK       I    between atoms: P_1345  and  O5'_1348 
REMARK       I    between atoms: O5'_1348  and  C5'_1349 
REMARK       I    between atoms: C5'_1349  and  C4'_1350 
REMARK       I    between atoms: C1'_1352  and  N1_1353 
REMARK       I    between atoms: C2'_1362  and  O2'_1363 
REMARK       I    between atoms: C3'_1365  and  O3'_1366 
REMARK       I    between atoms: O3'_1366  and  P_1367 
REMARK       I    between atoms: P_1367  and  O5'_1370 
REMARK       I    between atoms: O5'_1370  and  C5'_1371 
REMARK       I    between atoms: C5'_1371  and  C4'_1372 
REMARK       I    between atoms: C1'_1374  and  N1_1375 
REMARK       I    between atoms: C4_1380  and  N4_1381 
REMARK       I    between atoms: C2'_1385  and  O2'_1386 
REMARK       I    between atoms: C3'_1388  and  O3'_1389 
REMARK       I    between atoms: O3'_1389  and  P_1390 
REMARK       I    between atoms: P_1390  and  O5'_1393 
REMARK       I    between atoms: O5'_1393  and  C5'_1394 
REMARK       I    between atoms: C5'_1394  and  C4'_1395 
REMARK       I    between atoms: C1'_1397  and  N9_1398 
REMARK       I    between atoms: C2_1401  and  N2_1402 
REMARK       I    between atoms: C2'_1412  and  O2'_1413 
REMARK       I    between atoms: C3'_1415  and  O3'_1416 
REMARK       I    between atoms: O3'_1416  and  P_1417 
REMARK       I    between atoms: P_1417  and  O5'_1420 
REMARK       I    between atoms: O5'_1420  and  C5'_1421 
REMARK       I    between atoms: C5'_1421  and  C4'_1422 
REMARK       I    between atoms: C1'_1424  and  N9_1425 
REMARK       I    between atoms: C6_1430  and  N6_1431 
REMARK       I    between atoms: C2'_1437  and  O2'_1438 
REMARK       I    between atoms: C3'_1440  and  O3'_1441 
REMARK       I    between atoms: O3'_1441  and  P_1442 
REMARK       I    between atoms: P_1442  and  O5'_1445 
REMARK       I    between atoms: O5'_1445  and  C5'_1446 
REMARK       I    between atoms: C5'_1446  and  C4'_1447 
REMARK       I    between atoms: C1'_1449  and  N9_1450 
REMARK       I    between atoms: C2_1453  and  N2_1454 
REMARK       I    between atoms: C2'_1464  and  O2'_1465 
REMARK       I    between atoms: C3'_1467  and  O3'_1468 
REMARK       I    between atoms: O3'_1468  and  P_1469 
REMARK       I    between atoms: P_1469  and  O5'_1472 
REMARK       I    between atoms: O5'_1472  and  C5'_1473 
REMARK       I    between atoms: C5'_1473  and  C4'_1474 
REMARK       I    between atoms: C1'_1476  and  N1_1477 
REMARK       I    between atoms: C2'_1486  and  O2'_1487 
REMARK       I    between atoms: C3'_1489  and  O3'_1490 
REMARK       I    between atoms: O3'_1490  and  P_1491 
REMARK       I    between atoms: P_1491  and  O5'_1494 
REMARK       I    between atoms: O5'_1494  and  C5'_1495 
REMARK       I    between atoms: C5'_1495  and  C4'_1496 
REMARK       I    between atoms: C1'_1498  and  N1_1499 
REMARK       I    between atoms: C2'_1508  and  O2'_1509 
REMARK       I    between atoms: C3'_1511  and  O3'_1512 
REMARK       I    between atoms: O3'_1512  and  P_1513 
REMARK       I    between atoms: P_1513  and  O5'_1516 
REMARK       I    between atoms: O5'_1516  and  C5'_1517 
REMARK       I    between atoms: C5'_1517  and  C4'_1518 
REMARK       I    between atoms: C1'_1520  and  N1_1521 
REMARK       I    between atoms: C4_1526  and  N4_1527 
REMARK       I    between atoms: C2'_1531  and  O2'_1532 
REMARK       I    between atoms: C3'_1534  and  O3'_1535 
REMARK       I    between atoms: O3'_1535  and  P_1536 
REMARK       I    between atoms: P_1536  and  O5'_1539 
REMARK       I    between atoms: O5'_1539  and  C5'_1540 
REMARK       I    between atoms: C5'_1540  and  C4'_1541 
REMARK       I    between atoms: C1'_1543  and  N1_1544 
REMARK       I    between atoms: C2'_1553  and  O2'_1554 
REMARK       I    between atoms: C3'_1556  and  O3'_1557 
REMARK       I    between atoms: O3'_1557  and  P_1558 
REMARK       I    between atoms: P_1558  and  O5'_1561 
REMARK       I    between atoms: O5'_1561  and  C5'_1562 
REMARK       I    between atoms: C5'_1562  and  C4'_1563 
REMARK       I    between atoms: C1'_1565  and  N9_1566 
REMARK       I    between atoms: C2_1569  and  N2_1570 
REMARK       I    between atoms: C2'_1580  and  O2'_1581 
REMARK       I    between atoms: C3'_1583  and  O3'_1584 
REMARK       I    between atoms: O3'_1584  and  P_1585 
REMARK       I    between atoms: P_1585  and  O5'_1588 
REMARK       I    between atoms: O5'_1588  and  C5'_1589 
REMARK       I    between atoms: C5'_1589  and  C4'_1590 
REMARK       I    between atoms: C1'_1592  and  N9_1593 
REMARK       I    between atoms: C2_1596  and  N2_1597 
REMARK       I    between atoms: C2'_1607  and  O2'_1608 
REMARK       I    between atoms: C3'_1610  and  O3'_1611 
REMARK       I    between atoms: O3'_1611  and  P_1612 
REMARK       I    between atoms: P_1612  and  O5'_1615 
REMARK       I    between atoms: O5'_1615  and  C5'_1616 
REMARK       I    between atoms: C5'_1616  and  C4'_1617 
REMARK       I    between atoms: C1'_1619  and  N1_1620 
REMARK       I    between atoms: C4_1625  and  N4_1626 
REMARK       I    between atoms: C2'_1630  and  O2'_1631 
REMARK       I    between atoms: C3'_1633  and  O3'_1634 
REMARK       I    between atoms: O3'_1634  and  P_1635 
REMARK       I    between atoms: P_1635  and  O5'_1638 
REMARK       I    between atoms: O5'_1638  and  C5'_1639 
REMARK       I    between atoms: C5'_1639  and  C4'_1640 
REMARK       I    between atoms: C1'_1642  and  N1_1643 
REMARK       I    between atoms: C2'_1652  and  O2'_1653 
REMARK       I    between atoms: C3'_1655  and  O3'_1656 
REMARK       I    between atoms: O3'_1656  and  P_1657 
REMARK       I    between atoms: P_1657  and  O5'_1660 
REMARK       I    between atoms: O5'_1660  and  C5'_1661 
REMARK       I    between atoms: C5'_1661  and  C4'_1662 
REMARK       I    between atoms: C1'_1664  and  N1_1665 
REMARK       I    between atoms: C2'_1674  and  O2'_1675 
REMARK       I    between atoms: C3'_1677  and  O3'_1678 
REMARK       I    between atoms: O3'_1678  and  P_1679 
REMARK       I    between atoms: P_1679  and  O5'_1682 
REMARK       I    between atoms: O5'_1682  and  C5'_1683 
REMARK       I    between atoms: C5'_1683  and  C4'_1684 
REMARK       I    between atoms: C1'_1686  and  N9_1687 
REMARK       I    between atoms: C2_1690  and  N2_1691 
REMARK       I    between atoms: C2'_1701  and  O2'_1702 
REMARK       I    between atoms: C3'_1704  and  O3'_1705 
REMARK       I    between atoms: O3'_1705  and  P_1706 
REMARK       I    between atoms: P_1706  and  O5'_1709 
REMARK       I    between atoms: O5'_1709  and  C5'_1710 
REMARK       I    between atoms: C5'_1710  and  C4'_1711 
REMARK       I    between atoms: C1'_1713  and  N1_1714 
REMARK       I    between atoms: C2'_1723  and  O2'_1724 
REMARK       I    between atoms: C3'_1726  and  O3'_1727 
REMARK       I    between atoms: O3'_1727  and  P_1728 
REMARK       I    between atoms: P_1728  and  O5'_1731 
REMARK       I    between atoms: O5'_1731  and  C5'_1732 
REMARK       I    between atoms: C5'_1732  and  C4'_1733 
REMARK       I    between atoms: C1'_1735  and  N1_1736 
REMARK       I    between atoms: C4_1741  and  N4_1742 
REMARK       I    between atoms: C2'_1746  and  O2'_1747 
REMARK       I    between atoms: C3'_1749  and  O3'_1750 
REMARK       I    between atoms: O3'_1750  and  P_1751 
REMARK       I    between atoms: P_1751  and  O5'_1754 
REMARK       I    between atoms: O5'_1754  and  C5'_1755 
REMARK       I    between atoms: C5'_1755  and  C4'_1756 
REMARK       I    between atoms: C1'_1758  and  N1_1759 
REMARK       I    between atoms: C4_1764  and  N4_1765 
REMARK       I    between atoms: C2'_1769  and  O2'_1770 
REMARK       I    between atoms: C3'_1772  and  O3'_1773 
REMARK       I    between atoms: O3'_1773  and  P_1774 
REMARK       I    between atoms: P_1774  and  O5'_1777 
REMARK       I    between atoms: O5'_1777  and  C5'_1778 
REMARK       I    between atoms: C5'_1778  and  C4'_1779 
REMARK       I    between atoms: C1'_1781  and  N9_1782 
REMARK       I    between atoms: C6_1787  and  N6_1788 
REMARK       I    between atoms: C2'_1794  and  O2'_1795 
REMARK       I    between atoms: C3'_1797  and  O3'_1798 
REMARK       I    between atoms: O3'_1798  and  P_1799 
REMARK       I    between atoms: P_1799  and  O5'_1802 
REMARK       I    between atoms: O5'_1802  and  C5'_1803 
REMARK       I    between atoms: C5'_1803  and  C4'_1804 
REMARK       I    between atoms: C1'_1806  and  N9_1807 
REMARK       I    between atoms: C6_1812  and  N6_1813 
REMARK       I    between atoms: C2'_1819  and  O2'_1820 
REMARK       I    between atoms: C3'_1822  and  O3'_1823 
ROOT
ATOM      1 'HO5   G A   1      -0.381   5.315  -3.122  1.00  0.00     0.209 HD
ATOM      2  O5'   G A   1      -1.191   5.568  -3.570  1.00  0.00    -0.398 OA
ATOM      3  C5'   G A   1      -1.941   4.372  -3.791  1.00  0.00     0.198 C 
ATOM      4  C4'   G A   1      -3.157   4.326  -2.895  1.00  0.00     0.180 C 
ATOM      5  O4'   G A   1      -4.132   3.437  -3.503  1.00  0.00    -0.353 OA
ATOM      6  C1'   G A   1      -4.636   2.538  -2.537  1.00  0.00     0.262 C 
ATOM      7  N9    G A   1      -4.160   1.198  -2.864  1.00  0.00    -0.293 N 
ATOM      8  C4    G A   1      -4.088   0.124  -2.011  1.00  0.00     0.187 A 
ATOM      9  N3    G A   1      -4.443   0.122  -0.709  1.00  0.00    -0.044 NA
ATOM     10  C2    G A   1      -4.261  -1.060  -0.150  1.00  0.00     0.703 A 
ATOM     11  N2    G A   1      -4.558  -1.232   1.141  1.00  0.00    -0.233 N 
ATOM     12  H21   G A   1      -4.920  -0.450   1.667  1.00  0.00     0.174 HD
ATOM     13  H22   G A   1      -4.414  -2.125   1.591  1.00  0.00     0.174 HD
ATOM     14  N1    G A   1      -3.771  -2.157  -0.813  1.00  0.00    -0.153 N 
ATOM     15  H1    G A   1      -3.671  -3.016  -0.295  1.00  0.00     0.187 HD
ATOM     16  C6    G A   1      -3.400  -2.180  -2.153  1.00  0.00     0.292 A 
ATOM     17  O6    G A   1      -2.971  -3.226  -2.653  1.00  0.00    -0.265 OA
ATOM     18  C5    G A   1      -3.589  -0.914  -2.768  1.00  0.00     0.173 A 
ATOM     19  N7    G A   1      -3.347  -0.501  -4.072  1.00  0.00    -0.234 NA
ATOM     20  C8    G A   1      -3.699   0.756  -4.080  1.00  0.00     0.214 A 
ATOM     21  C2'   G A   1      -4.199   3.038  -1.160  1.00  0.00     0.199 C 
ATOM     22  O2'   G A   1      -5.179   3.932  -0.668  1.00  0.00    -0.388 OA
ATOM     23 'HO2   G A   1      -4.708   4.710  -0.369  1.00  0.00     0.210 HD
ATOM     24  C3'   G A   1      -2.907   3.779  -1.493  1.00  0.00     0.198 C 
ATOM     25  O3'   G A   1      -2.657   4.834  -0.564  1.00  0.00    -0.279 OA
ATOM     26  P     G A   2      -1.159   5.114  -0.046  1.00  0.00     0.408 P 
ATOM     27  OP1   G A   2      -1.140   6.494   0.499  1.00  0.00    -0.624 OA
ATOM     28  OP2   G A   2      -0.210   4.737  -1.126  1.00  0.00    -0.624 OA
ATOM     29  O5'   G A   2      -0.975   4.096   1.167  1.00  0.00    -0.287 OA
ATOM     30  C5'   G A   2      -1.137   2.693   0.979  1.00  0.00     0.216 C 
ATOM     31  C4'   G A   2      -0.466   1.932   2.098  1.00  0.00     0.180 C 
ATOM     32  O4'   G A   2      -1.044   0.599   2.140  1.00  0.00    -0.353 OA
ATOM     33  C1'   G A   2      -0.060  -0.344   1.791  1.00  0.00     0.262 C 
ATOM     34  N9    G A   2      -0.149  -0.599   0.357  1.00  0.00    -0.293 N 
ATOM     35  C4    G A   2       0.692  -1.392  -0.386  1.00  0.00     0.187 A 
ATOM     36  N3    G A   2       1.739  -2.096   0.086  1.00  0.00    -0.044 NA
ATOM     37  C2    G A   2       2.364  -2.752  -0.874  1.00  0.00     0.703 A 
ATOM     38  N2    G A   2       3.429  -3.503  -0.577  1.00  0.00    -0.233 N 
ATOM     39  H21   G A   2       3.736  -3.552   0.384  1.00  0.00     0.174 HD
ATOM     40  H22   G A   2       3.912  -4.012  -1.300  1.00  0.00     0.174 HD
ATOM     41  N1    G A   2       1.991  -2.723  -2.193  1.00  0.00    -0.153 N 
ATOM     42  H1    G A   2       2.538  -3.253  -2.855  1.00  0.00     0.187 HD
ATOM     43  C6    G A   2       0.908  -2.013  -2.699  1.00  0.00     0.292 A 
ATOM     44  O6    G A   2       0.646  -2.068  -3.904  1.00  0.00    -0.265 OA
ATOM     45  C5    G A   2       0.232  -1.297  -1.681  1.00  0.00     0.173 A 
ATOM     46  N7    G A   2      -0.881  -0.471  -1.751  1.00  0.00    -0.234 NA
ATOM     47  C8    G A   2      -1.073  -0.088  -0.520  1.00  0.00     0.214 A 
ATOM     48  C2'   G A   2       1.268   0.260   2.235  1.00  0.00     0.199 C 
ATOM     49  O2'   G A   2       1.426   0.037   3.623  1.00  0.00    -0.388 OA
ATOM     50 'HO2   G A   2       1.652   0.883   4.012  1.00  0.00     0.210 HD
ATOM     51  C3'   G A   2       1.044   1.741   1.933  1.00  0.00     0.198 C 
ATOM     52  O3'   G A   2       1.768   2.577   2.832  1.00  0.00    -0.279 OA
ATOM     53  P     G A   3       2.571   3.854   2.271  1.00  0.00     0.408 P 
ATOM     54  OP1   G A   3       3.302   4.449   3.420  1.00  0.00    -0.624 OA
ATOM     55  OP2   G A   3       1.635   4.697   1.484  1.00  0.00    -0.624 OA
ATOM     56  O5'   G A   3       3.640   3.229   1.267  1.00  0.00    -0.287 OA
ATOM     57  C5'   G A   3       5.019   3.594   1.336  1.00  0.00     0.216 C 
ATOM     58  C4'   G A   3       5.758   2.671   2.278  1.00  0.00     0.180 C 
ATOM     59  O4'   G A   3       5.174   1.343   2.185  1.00  0.00    -0.353 OA
ATOM     60  C1'   G A   3       6.197   0.369   2.099  1.00  0.00     0.262 C 
ATOM     61  N9    G A   3       6.161  -0.218   0.764  1.00  0.00    -0.293 N 
ATOM     62  C4    G A   3       6.687  -1.433   0.392  1.00  0.00     0.187 A 
ATOM     63  N3    G A   3       7.331  -2.299   1.200  1.00  0.00    -0.044 NA
ATOM     64  C2    G A   3       7.719  -3.383   0.552  1.00  0.00     0.703 A 
ATOM     65  N2    G A   3       8.376  -4.345   1.205  1.00  0.00    -0.233 N 
ATOM     66  H21   G A   3       8.565  -4.225   2.190  1.00  0.00     0.174 HD
ATOM     67  H22   G A   3       8.683  -5.176   0.723  1.00  0.00     0.174 HD
ATOM     68  N1    G A   3       7.493  -3.603  -0.782  1.00  0.00    -0.153 N 
ATOM     69  H1    G A   3       7.830  -4.466  -1.178  1.00  0.00     0.187 HD
ATOM     70  C6    G A   3       6.832  -2.726  -1.635  1.00  0.00     0.292 A 
ATOM     71  O6    G A   3       6.681  -3.022  -2.824  1.00  0.00    -0.265 OA
ATOM     72  C5    G A   3       6.409  -1.556  -0.953  1.00  0.00     0.173 A 
ATOM     73  N7    G A   3       5.725  -0.441  -1.419  1.00  0.00    -0.234 NA
ATOM     74  C8    G A   3       5.601   0.323  -0.368  1.00  0.00     0.214 A 
ATOM     75  C2'   G A   3       7.517   1.061   2.435  1.00  0.00     0.199 C 
ATOM     76  O2'   G A   3       7.714   1.011   3.837  1.00  0.00    -0.388 OA
ATOM     77 'HO2   G A   3       7.590   1.899   4.171  1.00  0.00     0.210 HD
ATOM     78  C3'   G A   3       7.237   2.483   1.961  1.00  0.00     0.198 C 
ATOM     79  O3'   G A   3       8.040   3.443   2.641  1.00  0.00    -0.279 OA
ATOM     80  P     C A   4       9.553   3.700   2.162  1.00  0.00     0.408 P 
ATOM     81  OP1   C A   4      10.446   3.331   3.290  1.00  0.00    -0.624 OA
ATOM     82  OP2   C A   4       9.621   5.066   1.589  1.00  0.00    -0.624 OA
ATOM     83  O5'   C A   4       9.763   2.655   0.976  1.00  0.00    -0.287 OA
ATOM     84  C5'   C A   4      11.003   1.970   0.802  1.00  0.00     0.216 C 
ATOM     85  C4'   C A   4      11.511   2.164  -0.608  1.00  0.00     0.180 C 
ATOM     86  O4'   C A   4      10.433   1.899  -1.544  1.00  0.00    -0.353 OA
ATOM     87  C1'   C A   4      10.569   2.743  -2.674  1.00  0.00     0.264 C 
ATOM     88  N1    C A   4       9.325   3.515  -2.830  1.00  0.00    -0.278 N 
ATOM     89  C6    C A   4       8.665   4.007  -1.738  1.00  0.00     0.102 A 
ATOM     90  C2    C A   4       8.829   3.745  -4.116  1.00  0.00     0.352 A 
ATOM     91  O2    C A   4       9.443   3.284  -5.090  1.00  0.00    -0.244 OA
ATOM     92  N3    C A   4       7.694   4.462  -4.269  1.00  0.00    -0.177 NA
ATOM     93  C4    C A   4       7.060   4.942  -3.198  1.00  0.00     0.128 A 
ATOM     94  N4    C A   4       5.946   5.646  -3.399  1.00  0.00    -0.384 N 
ATOM     95  H41   C A   4       5.437   6.026  -2.616  1.00  0.00     0.157 HD
ATOM     96  H42   C A   4       5.611   5.791  -4.342  1.00  0.00     0.157 HD
ATOM     97  C5    C A   4       7.540   4.721  -1.874  1.00  0.00     0.067 A 
ATOM     98  C2'   C A   4      11.806   3.620  -2.466  1.00  0.00     0.199 C 
ATOM     99  O2'   C A   4      12.909   3.012  -3.110  1.00  0.00    -0.388 OA
ATOM    100 'HO2   C A   4      13.685   3.515  -2.859  1.00  0.00     0.210 HD
ATOM    101  C3'   C A   4      11.961   3.577  -0.949  1.00  0.00     0.198 C 
ATOM    102  O3'   C A   4      13.304   3.810  -0.531  1.00  0.00    -0.279 OA
ATOM    103  P     A A   5      13.673   5.156   0.271  1.00  0.00     0.408 P 
ATOM    104  OP1   A A   5      14.826   4.837   1.153  1.00  0.00    -0.624 OA
ATOM    105  OP2   A A   5      12.434   5.720   0.862  1.00  0.00    -0.624 OA
ATOM    106  O5'   A A   5      14.180   6.154  -0.864  1.00  0.00    -0.287 OA
ATOM    107  C5'   A A   5      15.469   6.004  -1.458  1.00  0.00     0.216 C 
ATOM    108  C4'   A A   5      15.472   6.583  -2.853  1.00  0.00     0.180 C 
ATOM    109  O4'   A A   5      14.324   6.067  -3.581  1.00  0.00    -0.353 OA
ATOM    110  C1'   A A   5      13.762   7.093  -4.381  1.00  0.00     0.262 C 
ATOM    111  N9    A A   5      12.405   7.358  -3.901  1.00  0.00    -0.294 N 
ATOM    112  C4    A A   5      11.353   7.824  -4.651  1.00  0.00     0.167 A 
ATOM    113  N3    A A   5      11.358   8.130  -5.959  1.00  0.00    -0.222 NA
ATOM    114  C2    A A   5      10.157   8.551  -6.348  1.00  0.00     0.237 A 
ATOM    115  N1    A A   5       9.035   8.691  -5.629  1.00  0.00    -0.222 NA
ATOM    116  C6    A A   5       9.064   8.376  -4.316  1.00  0.00     0.155 A 
ATOM    117  N6    A A   5       7.947   8.520  -3.603  1.00  0.00    -0.382 N 
ATOM    118  H61   A A   5       7.946   8.292  -2.620  1.00  0.00     0.157 HD
ATOM    119  H62   A A   5       7.104   8.855  -4.049  1.00  0.00     0.157 HD
ATOM    120  C5    A A   5      10.281   7.916  -3.782  1.00  0.00     0.149 A 
ATOM    121  N7    A A   5      10.650   7.515  -2.505  1.00  0.00    -0.236 NA
ATOM    122  C8    A A   5      11.916   7.195  -2.629  1.00  0.00     0.214 A 
ATOM    123  C2'   A A   5      14.691   8.303  -4.300  1.00  0.00     0.199 C 
ATOM    124  O2'   A A   5      15.652   8.207  -5.334  1.00  0.00    -0.388 OA
ATOM    125 'HO2   A A   5      16.478   8.542  -4.983  1.00  0.00     0.210 HD
ATOM    126  C3'   A A   5      15.330   8.098  -2.931  1.00  0.00     0.198 C 
ATOM    127  O3'   A A   5      16.594   8.749  -2.820  1.00  0.00    -0.279 OA
ATOM    128  P     U A   6      16.674  10.250  -2.244  1.00  0.00     0.408 P 
ATOM    129  OP1   U A   6      18.111  10.585  -2.078  1.00  0.00    -0.624 OA
ATOM    130  OP2   U A   6      15.757  10.357  -1.082  1.00  0.00    -0.624 OA
ATOM    131  O5'   U A   6      16.086  11.147  -3.423  1.00  0.00    -0.287 OA
ATOM    132  C5'   U A   6      16.845  11.403  -4.603  1.00  0.00     0.216 C 
ATOM    133  C4'   U A   6      16.198  12.505  -5.410  1.00  0.00     0.180 C 
ATOM    134  O4'   U A   6      14.965  12.000  -5.992  1.00  0.00    -0.353 OA
ATOM    135  C1'   U A   6      13.960  12.997  -5.926  1.00  0.00     0.264 C 
ATOM    136  N1    U A   6      12.896  12.525  -5.029  1.00  0.00    -0.280 N 
ATOM    137  C6    U A   6      13.185  11.766  -3.916  1.00  0.00     0.104 A 
ATOM    138  C2    U A   6      11.593  12.870  -5.335  1.00  0.00     0.331 A 
ATOM    139  O2    U A   6      11.295  13.539  -6.309  1.00  0.00    -0.246 OA
ATOM    140  N3    U A   6      10.648  12.402  -4.461  1.00  0.00    -0.275 N 
ATOM    141  H3    U A   6       9.690  12.644  -4.663  1.00  0.00     0.173 HD
ATOM    142  C4    U A   6      10.864  11.640  -3.336  1.00  0.00     0.250 A 
ATOM    143  O4    U A   6       9.904  11.284  -2.655  1.00  0.00    -0.268 OA
ATOM    144  C5    U A   6      12.234  11.326  -3.085  1.00  0.00     0.092 A 
ATOM    145  C2'   U A   6      14.628  14.287  -5.454  1.00  0.00     0.199 C 
ATOM    146  O2'   U A   6      15.106  14.990  -6.586  1.00  0.00    -0.388 OA
ATOM    147 'HO2   U A   6      14.944  15.920  -6.418  1.00  0.00     0.210 HD
ATOM    148  C3'   U A   6      15.773  13.733  -4.617  1.00  0.00     0.198 C 
ATOM    149  O3'   U A   6      16.843  14.664  -4.473  1.00  0.00    -0.279 OA
ATOM    150  P     G A   7      16.875  15.654  -3.206  1.00  0.00     0.408 P 
ATOM    151  OP1   G A   7      18.063  16.533  -3.357  1.00  0.00    -0.624 OA
ATOM    152  OP2   G A   7      16.719  14.838  -1.974  1.00  0.00    -0.624 OA
ATOM    153  O5'   G A   7      15.566  16.548  -3.380  1.00  0.00    -0.287 OA
ATOM    154  C5'   G A   7      15.600  17.766  -4.124  1.00  0.00     0.216 C 
ATOM    155  C4'   G A   7      14.215  18.116  -4.620  1.00  0.00     0.180 C 
ATOM    156  O4'   G A   7      13.474  16.891  -4.862  1.00  0.00    -0.353 OA
ATOM    157  C1'   G A   7      12.121  17.065  -4.484  1.00  0.00     0.262 C 
ATOM    158  N9    G A   7      11.810  16.102  -3.431  1.00  0.00    -0.293 N 
ATOM    159  C4    G A   7      10.557  15.760  -2.983  1.00  0.00     0.187 A 
ATOM    160  N3    G A   7       9.388  16.257  -3.439  1.00  0.00    -0.044 NA
ATOM    161  C2    G A   7       8.352  15.733  -2.811  1.00  0.00     0.703 A 
ATOM    162  N2    G A   7       7.115  16.117  -3.141  1.00  0.00    -0.233 N 
ATOM    163  H21   G A   7       6.992  16.805  -3.870  1.00  0.00     0.174 HD
ATOM    164  H22   G A   7       6.313  15.728  -2.667  1.00  0.00     0.174 HD
ATOM    165  N1    G A   7       8.450  14.796  -1.814  1.00  0.00    -0.153 N 
ATOM    166  H1    G A   7       7.598  14.459  -1.396  1.00  0.00     0.187 HD
ATOM    167  C6    G A   7       9.641  14.268  -1.329  1.00  0.00     0.292 A 
ATOM    168  O6    G A   7       9.615  13.425  -0.427  1.00  0.00    -0.265 OA
ATOM    169  C5    G A   7      10.767  14.822  -1.994  1.00  0.00     0.173 A 
ATOM    170  N7    G A   7      12.123  14.580  -1.823  1.00  0.00    -0.234 NA
ATOM    171  C8    G A   7      12.701  15.361  -2.694  1.00  0.00     0.214 A 
ATOM    172  C2'   G A   7      11.935  18.523  -4.060  1.00  0.00     0.199 C 
ATOM    173  O2'   G A   7      11.517  19.272  -5.185  1.00  0.00    -0.388 OA
ATOM    174 'HO2   G A   7      12.181  19.947  -5.328  1.00  0.00     0.210 HD
ATOM    175  C3'   G A   7      13.352  18.903  -3.642  1.00  0.00     0.198 C 
ATOM    176  O3'   G A   7      13.598  20.303  -3.754  1.00  0.00    -0.279 OA
ATOM    177  P     U A   8      13.288  21.273  -2.510  1.00  0.00     0.408 P 
ATOM    178  OP1   U A   8      13.751  22.632  -2.886  1.00  0.00    -0.624 OA
ATOM    179  OP2   U A   8      13.809  20.638  -1.272  1.00  0.00    -0.624 OA
ATOM    180  O5'   U A   8      11.697  21.295  -2.425  1.00  0.00    -0.287 OA
ATOM    181  C5'   U A   8      10.910  21.794  -3.505  1.00  0.00     0.216 C 
ATOM    182  C4'   U A   8       9.550  22.222  -3.006  1.00  0.00     0.180 C 
ATOM    183  O4'   U A   8       8.634  21.099  -3.128  1.00  0.00    -0.353 OA
ATOM    184  C1'   U A   8       7.810  21.024  -1.980  1.00  0.00     0.264 C 
ATOM    185  N1    U A   8       8.129  19.779  -1.265  1.00  0.00    -0.280 N 
ATOM    186  C6    U A   8       9.405  19.263  -1.266  1.00  0.00     0.104 A 
ATOM    187  C2    U A   8       7.104  19.142  -0.589  1.00  0.00     0.331 A 
ATOM    188  O2    U A   8       5.962  19.564  -0.566  1.00  0.00    -0.246 OA
ATOM    189  N3    U A   8       7.466  17.989   0.059  1.00  0.00    -0.275 N 
ATOM    190  H3    U A   8       6.733  17.508   0.559  1.00  0.00     0.173 HD
ATOM    191  C4    U A   8       8.718  17.420   0.099  1.00  0.00     0.250 A 
ATOM    192  O4    U A   8       8.887  16.379   0.732  1.00  0.00    -0.268 OA
ATOM    193  C5    U A   8       9.721  18.136  -0.625  1.00  0.00     0.092 A 
ATOM    194  C2'   U A   8       8.052  22.288  -1.157  1.00  0.00     0.199 C 
ATOM    195  O2'   U A   8       7.163  23.297  -1.600  1.00  0.00    -0.388 OA
ATOM    196 'HO2   U A   8       7.691  24.080  -1.757  1.00  0.00     0.210 HD
ATOM    197  C3'   U A   8       9.491  22.619  -1.536  1.00  0.00     0.198 C 
ATOM    198  O3'   U A   8       9.794  23.999  -1.353  1.00  0.00    -0.279 OA
ATOM    199  P     G A   9      10.869  24.442  -0.240  1.00  0.00     0.408 P 
ATOM    200  OP1   G A   9      12.132  24.763  -0.949  1.00  0.00    -0.624 OA
ATOM    201  OP2   G A   9      10.873  23.423   0.842  1.00  0.00    -0.624 OA
ATOM    202  O5'   G A   9      10.278  25.797   0.357  1.00  0.00    -0.287 OA
ATOM    203  C5'   G A   9       9.002  26.290  -0.051  1.00  0.00     0.216 C 
ATOM    204  C4'   G A   9       8.232  26.790   1.149  1.00  0.00     0.180 C 
ATOM    205  O4'   G A   9       6.987  27.382   0.680  1.00  0.00    -0.353 OA
ATOM    206  C1'   G A   9       5.891  26.723   1.279  1.00  0.00     0.262 C 
ATOM    207  N9    G A   9       4.807  26.650   0.304  1.00  0.00    -0.293 N 
ATOM    208  C4    G A   9       4.336  27.678  -0.475  1.00  0.00     0.187 A 
ATOM    209  N3    G A   9       4.795  28.948  -0.477  1.00  0.00    -0.044 NA
ATOM    210  C2    G A   9       4.139  29.708  -1.335  1.00  0.00     0.703 A 
ATOM    211  N2    G A   9       4.468  30.995  -1.465  1.00  0.00    -0.233 N 
ATOM    212  H21   G A   9       5.219  31.367  -0.900  1.00  0.00     0.174 HD
ATOM    213  H22   G A   9       3.977  31.589  -2.114  1.00  0.00     0.174 HD
ATOM    214  N1    G A   9       3.114  29.262  -2.129  1.00  0.00    -0.153 N 
ATOM    215  H1    G A   9       2.675  29.921  -2.752  1.00  0.00     0.187 HD
ATOM    216  C6    G A   9       2.623  27.963  -2.143  1.00  0.00     0.292 A 
ATOM    217  O6    G A   9       1.689  27.668  -2.899  1.00  0.00    -0.265 OA
ATOM    218  C5    G A   9       3.317  27.131  -1.228  1.00  0.00     0.173 A 
ATOM    219  N7    G A   9       3.151  25.786  -0.929  1.00  0.00    -0.234 NA
ATOM    220  C8    G A   9       4.055  25.547  -0.018  1.00  0.00     0.214 A 
ATOM    221  C2'   G A   9       6.404  25.365   1.747  1.00  0.00     0.199 C 
ATOM    222  O2'   G A   9       5.628  24.953   2.857  1.00  0.00    -0.388 OA
ATOM    223 'HO2   G A   9       6.166  24.361   3.385  1.00  0.00     0.210 HD
ATOM    224  C3'   G A   9       7.833  25.715   2.155  1.00  0.00     0.198 C 
ATOM    225  O3'   G A   9       7.916  26.205   3.490  1.00  0.00    -0.279 OA
ATOM    226  P     G A  10       8.419  25.237   4.671  1.00  0.00     0.408 P 
ATOM    227  OP1   G A  10       8.699  26.094   5.852  1.00  0.00    -0.624 OA
ATOM    228  OP2   G A  10       9.488  24.353   4.139  1.00  0.00    -0.624 OA
ATOM    229  O5'   G A  10       7.148  24.334   4.996  1.00  0.00    -0.287 OA
ATOM    230  C5'   G A  10       6.159  24.766   5.929  1.00  0.00     0.216 C 
ATOM    231  C4'   G A  10       5.045  23.749   6.020  1.00  0.00     0.180 C 
ATOM    232  O4'   G A  10       5.603  22.418   5.827  1.00  0.00    -0.353 OA
ATOM    233  C1'   G A  10       5.459  21.661   7.013  1.00  0.00     0.262 C 
ATOM    234  N9    G A  10       6.683  20.896   7.226  1.00  0.00    -0.293 N 
ATOM    235  C4    G A  10       6.864  19.885   8.136  1.00  0.00     0.187 A 
ATOM    236  N3    G A  10       5.937  19.419   9.000  1.00  0.00    -0.044 NA
ATOM    237  C2    G A  10       6.409  18.441   9.751  1.00  0.00     0.703 A 
ATOM    238  N2    G A  10       5.619  17.862  10.661  1.00  0.00    -0.233 N 
ATOM    239  H21   G A  10       4.667  18.183  10.759  1.00  0.00     0.174 HD
ATOM    240  H22   G A  10       5.965  17.105  11.233  1.00  0.00     0.174 HD
ATOM    241  N1    G A  10       7.688  17.957   9.666  1.00  0.00    -0.153 N 
ATOM    242  H1    G A  10       7.950  17.205  10.283  1.00  0.00     0.187 HD
ATOM    243  C6    G A  10       8.661  18.420   8.787  1.00  0.00     0.292 A 
ATOM    244  O6    G A  10       9.789  17.912   8.796  1.00  0.00    -0.265 OA
ATOM    245  C5    G A  10       8.169  19.473   7.971  1.00  0.00     0.173 A 
ATOM    246  N7    G A  10       8.796  20.208   6.973  1.00  0.00    -0.234 NA
ATOM    247  C8    G A  10       7.878  21.039   6.563  1.00  0.00     0.214 A 
ATOM    248  C2'   G A  10       5.148  22.653   8.130  1.00  0.00     0.199 C 
ATOM    249  O2'   G A  10       4.367  22.003   9.116  1.00  0.00    -0.388 OA
ATOM    250 'HO2   G A  10       4.118  22.667   9.759  1.00  0.00     0.210 HD
ATOM    251  C3'   G A  10       4.336  23.694   7.369  1.00  0.00     0.198 C 
ATOM    252  O3'   G A  10       2.969  23.321   7.220  1.00  0.00    -0.279 OA
ATOM    253  P     U A  11       1.903  23.705   8.362  1.00  0.00     0.408 P 
ATOM    254  OP1   U A  11       0.773  24.394   7.688  1.00  0.00    -0.624 OA
ATOM    255  OP2   U A  11       2.618  24.386   9.474  1.00  0.00    -0.624 OA
ATOM    256  O5'   U A  11       1.374  22.300   8.895  1.00  0.00    -0.287 OA
ATOM    257  C5'   U A  11       1.804  21.074   8.303  1.00  0.00     0.216 C 
ATOM    258  C4'   U A  11       0.900  19.943   8.732  1.00  0.00     0.180 C 
ATOM    259  O4'   U A  11      -0.475  20.296   8.411  1.00  0.00    -0.353 OA
ATOM    260  C1'   U A  11      -0.954  19.463   7.371  1.00  0.00     0.264 C 
ATOM    261  N1    U A  11      -1.653  20.307   6.391  1.00  0.00    -0.280 N 
ATOM    262  C6    U A  11      -1.138  21.523   6.004  1.00  0.00     0.104 A 
ATOM    263  C2    U A  11      -2.846  19.841   5.870  1.00  0.00     0.331 A 
ATOM    264  O2    U A  11      -3.335  18.772   6.188  1.00  0.00    -0.246 OA
ATOM    265  N3    U A  11      -3.448  20.675   4.965  1.00  0.00    -0.275 N 
ATOM    266  H3    U A  11      -4.322  20.359   4.574  1.00  0.00     0.173 HD
ATOM    267  C4    U A  11      -2.991  21.899   4.533  1.00  0.00     0.250 A 
ATOM    268  O4    U A  11      -3.648  22.533   3.708  1.00  0.00    -0.268 OA
ATOM    269  C5    U A  11      -1.752  22.310   5.116  1.00  0.00     0.092 A 
ATOM    270  C2'   U A  11       0.250  18.716   6.799  1.00  0.00     0.199 C 
ATOM    271  O2'   U A  11      -0.175  17.438   6.367  1.00  0.00    -0.388 OA
ATOM    272 'HO2   U A  11       0.193  16.796   6.975  1.00  0.00     0.210 HD
ATOM    273  C3'   U A  11       1.146  18.616   8.027  1.00  0.00     0.198 C 
ATOM    274  O3'   U A  11       0.801  17.512   8.859  1.00  0.00    -0.279 OA
ATOM    275  P     G A  12       1.916  16.846   9.807  1.00  0.00     0.408 P 
ATOM    276  OP1   G A  12       1.288  15.687  10.490  1.00  0.00    -0.624 OA
ATOM    277  OP2   G A  12       2.553  17.916  10.617  1.00  0.00    -0.624 OA
ATOM    278  O5'   G A  12       3.006  16.287   8.787  1.00  0.00    -0.287 OA
ATOM    279  C5'   G A  12       2.673  15.288   7.824  1.00  0.00     0.216 C 
ATOM    280  C4'   G A  12       3.931  14.670   7.257  1.00  0.00     0.180 C 
ATOM    281  O4'   G A  12       4.231  15.327   5.994  1.00  0.00    -0.353 OA
ATOM    282  C1'   G A  12       5.525  15.890   6.045  1.00  0.00     0.262 C 
ATOM    283  N9    G A  12       5.520  17.138   5.289  1.00  0.00    -0.293 N 
ATOM    284  C4    G A  12       6.621  17.790   4.789  1.00  0.00     0.187 A 
ATOM    285  N3    G A  12       7.902  17.385   4.911  1.00  0.00    -0.044 NA
ATOM    286  C2    G A  12       8.741  18.221   4.328  1.00  0.00     0.703 A 
ATOM    287  N2    G A  12      10.052  17.971   4.359  1.00  0.00    -0.233 N 
ATOM    288  H21   G A  12      10.377  17.140   4.832  1.00  0.00     0.174 HD
ATOM    289  H22   G A  12      10.707  18.605   3.928  1.00  0.00     0.174 HD
ATOM    290  N1    G A  12       8.356  19.362   3.672  1.00  0.00    -0.153 N 
ATOM    291  H1    G A  12       9.073  19.937   3.258  1.00  0.00     0.187 HD
ATOM    292  C6    G A  12       7.043  19.798   3.531  1.00  0.00     0.292 A 
ATOM    293  O6    G A  12       6.807  20.842   2.914  1.00  0.00    -0.265 OA
ATOM    294  C5    G A  12       6.128  18.911   4.158  1.00  0.00     0.173 A 
ATOM    295  N7    G A  12       4.743  18.966   4.258  1.00  0.00    -0.234 NA
ATOM    296  C8    G A  12       4.430  17.895   4.936  1.00  0.00     0.214 A 
ATOM    297  C2'   G A  12       5.862  16.059   7.523  1.00  0.00     0.199 C 
ATOM    298  O2'   G A  12       7.266  15.990   7.684  1.00  0.00    -0.388 OA
ATOM    299 'HO2   G A  12       7.519  15.084   7.506  1.00  0.00     0.210 HD
ATOM    300  C3'   G A  12       5.181  14.833   8.120  1.00  0.00     0.198 C 
ATOM    301  O3'   G A  12       6.014  13.676   8.060  1.00  0.00    -0.279 OA
ATOM    302  P     U A  13       5.838  12.505   9.148  1.00  0.00     0.408 P 
ATOM    303  OP1   U A  13       5.414  13.131  10.428  1.00  0.00    -0.624 OA
ATOM    304  OP2   U A  13       7.061  11.663   9.116  1.00  0.00    -0.624 OA
ATOM    305  O5'   U A  13       4.618  11.643   8.593  1.00  0.00    -0.287 OA
ATOM    306  C5'   U A  13       4.820  10.634   7.605  1.00  0.00     0.216 C 
ATOM    307  C4'   U A  13       3.562   9.814   7.432  1.00  0.00     0.180 C 
ATOM    308  O4'   U A  13       3.222   9.210   8.713  1.00  0.00    -0.353 OA
ATOM    309  C1'   U A  13       1.987   9.724   9.173  1.00  0.00     0.264 C 
ATOM    310  N1    U A  13       2.098   9.975  10.616  1.00  0.00    -0.280 N 
ATOM    311  C6    U A  13       3.222  10.560  11.153  1.00  0.00     0.104 A 
ATOM    312  C2    U A  13       1.036   9.604  11.420  1.00  0.00     0.331 A 
ATOM    313  O2    U A  13       0.026   9.081  10.983  1.00  0.00    -0.246 OA
ATOM    314  N3    U A  13       1.199   9.868  12.755  1.00  0.00    -0.275 N 
ATOM    315  H3    U A  13       0.434   9.610  13.358  1.00  0.00     0.173 HD
ATOM    316  C4    U A  13       2.291  10.449  13.358  1.00  0.00     0.250 A 
ATOM    317  O4    U A  13       2.289  10.619  14.577  1.00  0.00    -0.268 OA
ATOM    318  C5    U A  13       3.348  10.801  12.461  1.00  0.00     0.092 A 
ATOM    319  C2'   U A  13       1.692  10.975   8.349  1.00  0.00     0.199 C 
ATOM    320  O2'   U A  13       0.290  11.122   8.229  1.00  0.00    -0.388 OA
ATOM    321 'HO2   U A  13       0.039  10.711   7.401  1.00  0.00     0.210 HD
ATOM    322  C3'   U A  13       2.325  10.601   7.013  1.00  0.00     0.198 C 
ATOM    323  O3'   U A  13       1.456   9.812   6.207  1.00  0.00    -0.279 OA
ATOM    324  P     A A  14       1.610   9.836   4.606  1.00  0.00     0.408 P 
ATOM    325  OP1   A A  14       0.635   8.862   4.052  1.00  0.00    -0.624 OA
ATOM    326  OP2   A A  14       3.049   9.706   4.266  1.00  0.00    -0.624 OA
ATOM    327  O5'   A A  14       1.132  11.299   4.194  1.00  0.00    -0.287 OA
ATOM    328  C5'   A A  14      -0.038  11.878   4.769  1.00  0.00     0.216 C 
ATOM    329  C4'   A A  14      -0.239  13.277   4.237  1.00  0.00     0.180 C 
ATOM    330  O4'   A A  14       0.810  14.131   4.768  1.00  0.00    -0.353 OA
ATOM    331  C1'   A A  14       1.258  15.022   3.763  1.00  0.00     0.262 C 
ATOM    332  N9    A A  14       2.666  14.733   3.490  1.00  0.00    -0.294 N 
ATOM    333  C4    A A  14       3.542  15.541   2.807  1.00  0.00     0.167 A 
ATOM    334  N3    A A  14       3.284  16.738   2.255  1.00  0.00    -0.222 NA
ATOM    335  C2    A A  14       4.376  17.233   1.676  1.00  0.00     0.237 A 
ATOM    336  N1    A A  14       5.604  16.704   1.593  1.00  0.00    -0.222 NA
ATOM    337  C6    A A  14       5.829  15.499   2.159  1.00  0.00     0.155 A 
ATOM    338  N6    A A  14       7.051  14.974   2.078  1.00  0.00    -0.382 N 
ATOM    339  H61   A A  14       7.240  14.075   2.495  1.00  0.00     0.157 HD
ATOM    340  H62   A A  14       7.787  15.477   1.600  1.00  0.00     0.157 HD
ATOM    341  C5    A A  14       4.750  14.868   2.803  1.00  0.00     0.149 A 
ATOM    342  N7    A A  14       4.638  13.655   3.469  1.00  0.00    -0.236 NA
ATOM    343  C8    A A  14       3.386  13.622   3.854  1.00  0.00     0.214 A 
ATOM    344  C2'   A A  14       0.346  14.854   2.548  1.00  0.00     0.199 C 
ATOM    345  O2'   A A  14      -0.730  15.767   2.662  1.00  0.00    -0.388 OA
ATOM    346 'HO2   A A  14      -1.534  15.248   2.637  1.00  0.00     0.210 HD
ATOM    347  C3'   A A  14      -0.134  13.417   2.724  1.00  0.00     0.198 C 
ATOM    348  O3'   A A  14      -1.394  13.184   2.098  1.00  0.00    -0.279 OA
ATOM    349  P     G A  15      -1.449  12.712   0.561  1.00  0.00     0.408 P 
ATOM    350  OP1   G A  15      -2.872  12.760   0.137  1.00  0.00    -0.624 OA
ATOM    351  OP2   G A  15      -0.689  11.442   0.432  1.00  0.00    -0.624 OA
ATOM    352  O5'   G A  15      -0.657  13.851  -0.223  1.00  0.00    -0.287 OA
ATOM    353  C5'   G A  15      -1.156  15.188  -0.280  1.00  0.00     0.216 C 
ATOM    354  C4'   G A  15      -0.528  15.934  -1.435  1.00  0.00     0.180 C 
ATOM    355  O4'   G A  15       0.668  16.616  -0.977  1.00  0.00    -0.353 OA
ATOM    356  C1'   G A  15       1.596  16.710  -2.044  1.00  0.00     0.262 C 
ATOM    357  N9    G A  15       2.865  16.137  -1.606  1.00  0.00    -0.293 N 
ATOM    358  C4    G A  15       3.080  14.847  -1.182  1.00  0.00     0.187 A 
ATOM    359  N3    G A  15       2.149  13.875  -1.091  1.00  0.00    -0.044 NA
ATOM    360  C2    G A  15       2.661  12.741  -0.650  1.00  0.00     0.703 A 
ATOM    361  N2    G A  15       1.876  11.672  -0.503  1.00  0.00    -0.233 N 
ATOM    362  H21   G A  15       0.895  11.749  -0.732  1.00  0.00     0.174 HD
ATOM    363  H22   G A  15       2.249  10.799  -0.163  1.00  0.00     0.174 HD
ATOM    364  N1    G A  15       3.982  12.570  -0.323  1.00  0.00    -0.153 N 
ATOM    365  H1    G A  15       4.268  11.661   0.008  1.00  0.00     0.187 HD
ATOM    366  C6    G A  15       4.959  13.553  -0.412  1.00  0.00     0.292 A 
ATOM    367  O6    G A  15       6.124  13.289  -0.096  1.00  0.00    -0.265 OA
ATOM    368  C5    G A  15       4.425  14.780  -0.883  1.00  0.00     0.173 A 
ATOM    369  N7    G A  15       5.043  16.003  -1.114  1.00  0.00    -0.234 NA
ATOM    370  C8    G A  15       4.079  16.773  -1.539  1.00  0.00     0.214 A 
ATOM    371  C2'   G A  15       0.989  15.997  -3.255  1.00  0.00     0.199 C 
ATOM    372  O2'   G A  15       0.344  16.959  -4.068  1.00  0.00    -0.388 OA
ATOM    373 'HO2   G A  15      -0.557  16.657  -4.187  1.00  0.00     0.210 HD
ATOM    374  C3'   G A  15      -0.025  15.076  -2.585  1.00  0.00     0.198 C 
ATOM    375  O3'   G A  15      -1.081  14.693  -3.461  1.00  0.00    -0.279 OA
ATOM    376  P     A A  16      -0.942  13.354  -4.340  1.00  0.00     0.408 P 
ATOM    377  OP1   A A  16      -2.209  13.191  -5.098  1.00  0.00    -0.624 OA
ATOM    378  OP2   A A  16      -0.469  12.257  -3.457  1.00  0.00    -0.624 OA
ATOM    379  O5'   A A  16       0.216  13.695  -5.381  1.00  0.00    -0.287 OA
ATOM    380  C5'   A A  16       0.114  14.823  -6.248  1.00  0.00     0.216 C 
ATOM    381  C4'   A A  16       1.357  14.942  -7.097  1.00  0.00     0.180 C 
ATOM    382  O4'   A A  16       2.466  15.369  -6.265  1.00  0.00    -0.353 OA
ATOM    383  C1'   A A  16       3.669  14.796  -6.746  1.00  0.00     0.262 C 
ATOM    384  N9    A A  16       4.287  14.041  -5.657  1.00  0.00    -0.294 N 
ATOM    385  C4    A A  16       5.629  13.788  -5.511  1.00  0.00     0.167 A 
ATOM    386  N3    A A  16       6.624  14.178  -6.325  1.00  0.00    -0.222 NA
ATOM    387  C2    A A  16       7.798  13.750  -5.869  1.00  0.00     0.237 A 
ATOM    388  N1    A A  16       8.069  13.031  -4.772  1.00  0.00    -0.222 NA
ATOM    389  C6    A A  16       7.046  12.657  -3.974  1.00  0.00     0.155 A 
ATOM    390  N6    A A  16       7.318  11.944  -2.881  1.00  0.00    -0.382 N 
ATOM    391  H61   A A  16       6.571  11.653  -2.267  1.00  0.00     0.157 HD
ATOM    392  H62   A A  16       8.275  11.696  -2.668  1.00  0.00     0.157 HD
ATOM    393  C5    A A  16       5.748  13.048  -4.349  1.00  0.00     0.149 A 
ATOM    394  N7    A A  16       4.505  12.837  -3.771  1.00  0.00    -0.236 NA
ATOM    395  C8    A A  16       3.673  13.444  -4.584  1.00  0.00     0.214 A 
ATOM    396  C2'   A A  16       3.326  13.940  -7.968  1.00  0.00     0.199 C 
ATOM    397  O2'   A A  16       3.511  14.724  -9.131  1.00  0.00    -0.388 OA
ATOM    398 'HO2   A A  16       2.692  14.687  -9.624  1.00  0.00     0.210 HD
ATOM    399  C3'   A A  16       1.849  13.649  -7.728  1.00  0.00     0.198 C 
ATOM    400  O3'   A A  16       1.145  13.358  -8.933  1.00  0.00    -0.279 OA
ATOM    401  P     U A  17       0.893  11.828  -9.363  1.00  0.00     0.408 P 
ATOM    402  OP1   U A  17      -0.130  11.838 -10.440  1.00  0.00    -0.624 OA
ATOM    403  OP2   U A  17       0.659  11.021  -8.138  1.00  0.00    -0.624 OA
ATOM    404  O5'   U A  17       2.280  11.374 -10.001  1.00  0.00    -0.287 OA
ATOM    405  C5'   U A  17       2.831  12.057 -11.126  1.00  0.00     0.216 C 
ATOM    406  C4'   U A  17       4.100  11.373 -11.580  1.00  0.00     0.180 C 
ATOM    407  O4'   U A  17       5.170  11.720 -10.661  1.00  0.00    -0.353 OA
ATOM    408  C1'   U A  17       5.979  10.585 -10.414  1.00  0.00     0.264 C 
ATOM    409  N1    U A  17       5.879  10.251  -8.986  1.00  0.00    -0.280 N 
ATOM    410  C6    U A  17       4.690  10.384  -8.303  1.00  0.00     0.104 A 
ATOM    411  C2    U A  17       7.020   9.800  -8.347  1.00  0.00     0.331 A 
ATOM    412  O2    U A  17       8.089   9.667  -8.916  1.00  0.00    -0.246 OA
ATOM    413  N3    U A  17       6.863   9.509  -7.017  1.00  0.00    -0.275 N 
ATOM    414  H3    U A  17       7.682   9.175  -6.531  1.00  0.00     0.173 HD
ATOM    415  C4    U A  17       5.710   9.619  -6.274  1.00  0.00     0.250 A 
ATOM    416  O4    U A  17       5.732   9.326  -5.079  1.00  0.00    -0.268 OA
ATOM    417  C5    U A  17       4.575  10.090  -7.005  1.00  0.00     0.092 A 
ATOM    418  C2'   U A  17       5.511   9.467 -11.346  1.00  0.00     0.199 C 
ATOM    419  O2'   U A  17       6.256   9.537 -12.547  1.00  0.00    -0.388 OA
ATOM    420 'HO2   U A  17       6.226   8.668 -12.949  1.00  0.00     0.210 HD
ATOM    421  C3'   U A  17       4.053   9.851 -11.574  1.00  0.00     0.198 C 
ATOM    422  O3'   U A  17       3.543   9.348 -12.807  1.00  0.00    -0.279 OA
ATOM    423  P     G A  18       2.503   8.121 -12.807  1.00  0.00     0.408 P 
ATOM    424  OP1   G A  18       1.675   8.248 -14.034  1.00  0.00    -0.624 OA
ATOM    425  OP2   G A  18       1.837   8.049 -11.480  1.00  0.00    -0.624 OA
ATOM    426  O5'   G A  18       3.426   6.832 -12.967  1.00  0.00    -0.287 OA
ATOM    427  C5'   G A  18       4.139   6.583 -14.178  1.00  0.00     0.216 C 
ATOM    428  C4'   G A  18       5.104   5.436 -13.989  1.00  0.00     0.180 C 
ATOM    429  O4'   G A  18       6.103   5.826 -13.006  1.00  0.00    -0.353 OA
ATOM    430  C1'   G A  18       6.375   4.737 -12.142  1.00  0.00     0.262 C 
ATOM    431  N9    G A  18       5.921   5.091 -10.801  1.00  0.00    -0.293 N 
ATOM    432  C4    G A  18       6.516   4.731  -9.616  1.00  0.00     0.187 A 
ATOM    433  N3    G A  18       7.627   3.977  -9.484  1.00  0.00    -0.044 NA
ATOM    434  C2    G A  18       7.956   3.803  -8.218  1.00  0.00     0.703 A 
ATOM    435  N2    G A  18       9.030   3.072  -7.905  1.00  0.00    -0.233 N 
ATOM    436  H21   G A  18       9.579   2.660  -8.646  1.00  0.00     0.174 HD
ATOM    437  H22   G A  18       9.291   2.933  -6.940  1.00  0.00     0.174 HD
ATOM    438  N1    G A  18       7.256   4.328  -7.162  1.00  0.00    -0.153 N 
ATOM    439  H1    G A  18       7.598   4.137  -6.233  1.00  0.00     0.187 HD
ATOM    440  C6    G A  18       6.111   5.108  -7.272  1.00  0.00     0.292 A 
ATOM    441  O6    G A  18       5.556   5.533  -6.253  1.00  0.00    -0.265 OA
ATOM    442  C5    G A  18       5.740   5.301  -8.629  1.00  0.00     0.173 A 
ATOM    443  N7    G A  18       4.677   6.003  -9.182  1.00  0.00    -0.234 NA
ATOM    444  C8    G A  18       4.825   5.848 -10.468  1.00  0.00     0.214 A 
ATOM    445  C2'   G A  18       5.680   3.507 -12.723  1.00  0.00     0.199 C 
ATOM    446  O2'   G A  18       6.561   2.882 -13.638  1.00  0.00    -0.388 OA
ATOM    447 'HO2   G A  18       6.646   1.970 -13.359  1.00  0.00     0.210 HD
ATOM    448  C3'   G A  18       4.499   4.150 -13.440  1.00  0.00     0.198 C 
ATOM    449  O3'   G A  18       3.980   3.323 -14.479  1.00  0.00    -0.279 OA
ATOM    450  P     G A  19       3.195   1.970 -14.105  1.00  0.00     0.408 P 
ATOM    451  OP1   G A  19       2.631   1.422 -15.365  1.00  0.00    -0.624 OA
ATOM    452  OP2   G A  19       2.290   2.257 -12.962  1.00  0.00    -0.624 OA
ATOM    453  O5'   G A  19       4.339   0.979 -13.606  1.00  0.00    -0.287 OA
ATOM    454  C5'   G A  19       4.080   0.005 -12.596  1.00  0.00     0.216 C 
ATOM    455  C4'   G A  19       5.380  -0.557 -12.069  1.00  0.00     0.180 C 
ATOM    456  O4'   G A  19       6.044   0.470 -11.285  1.00  0.00    -0.353 OA
ATOM    457  C1'   G A  19       6.591  -0.099 -10.111  1.00  0.00     0.262 C 
ATOM    458  N9    G A  19       5.910   0.484  -8.960  1.00  0.00    -0.293 N 
ATOM    459  C4    G A  19       6.094   0.146  -7.640  1.00  0.00     0.187 A 
ATOM    460  N3    G A  19       6.944  -0.792  -7.173  1.00  0.00    -0.044 NA
ATOM    461  C2    G A  19       6.897  -0.888  -5.856  1.00  0.00     0.703 A 
ATOM    462  N2    G A  19       7.678  -1.769  -5.228  1.00  0.00    -0.233 N 
ATOM    463  H21   G A  19       8.299  -2.354  -5.768  1.00  0.00     0.174 HD
ATOM    464  H22   G A  19       7.643  -1.856  -4.223  1.00  0.00     0.174 HD
ATOM    465  N1    G A  19       6.082  -0.126  -5.059  1.00  0.00    -0.153 N 
ATOM    466  H1    G A  19       6.121  -0.279  -4.063  1.00  0.00     0.187 HD
ATOM    467  C6    G A  19       5.200   0.846  -5.516  1.00  0.00     0.292 A 
ATOM    468  O6    G A  19       4.510   1.477  -4.708  1.00  0.00    -0.265 OA
ATOM    469  C5    G A  19       5.238   0.963  -6.930  1.00  0.00     0.173 A 
ATOM    470  N7    G A  19       4.530   1.797  -7.786  1.00  0.00    -0.234 NA
ATOM    471  C8    G A  19       4.961   1.477  -8.975  1.00  0.00     0.214 A 
ATOM    472  C2'   G A  19       6.445  -1.618 -10.213  1.00  0.00     0.199 C 
ATOM    473  O2'   G A  19       7.608  -2.145 -10.824  1.00  0.00    -0.388 OA
ATOM    474 'HO2   G A  19       7.387  -3.029 -11.118  1.00  0.00     0.210 HD
ATOM    475  C3'   G A  19       5.233  -1.748 -11.131  1.00  0.00     0.198 C 
ATOM    476  O3'   G A  19       5.234  -2.976 -11.856  1.00  0.00    -0.279 OA
ATOM    477  P     U A  20       3.947  -3.941 -11.805  1.00  0.00     0.408 P 
ATOM    478  OP1   U A  20       4.063  -4.898 -12.933  1.00  0.00    -0.624 OA
ATOM    479  OP2   U A  20       2.730  -3.097 -11.684  1.00  0.00    -0.624 OA
ATOM    480  O5'   U A  20       4.129  -4.753 -10.446  1.00  0.00    -0.287 OA
ATOM    481  C5'   U A  20       5.402  -5.276 -10.069  1.00  0.00     0.216 C 
ATOM    482  C4'   U A  20       5.419  -5.605  -8.594  1.00  0.00     0.180 C 
ATOM    483  O4'   U A  20       5.094  -4.400  -7.847  1.00  0.00    -0.353 OA
ATOM    484  C1'   U A  20       3.879  -4.581  -7.148  1.00  0.00     0.264 C 
ATOM    485  N1    U A  20       3.082  -3.355  -7.284  1.00  0.00    -0.280 N 
ATOM    486  C6    U A  20       2.760  -2.857  -8.524  1.00  0.00     0.104 A 
ATOM    487  C2    U A  20       2.660  -2.723  -6.130  1.00  0.00     0.331 A 
ATOM    488  O2    U A  20       2.931  -3.130  -5.014  1.00  0.00    -0.246 OA
ATOM    489  N3    U A  20       1.907  -1.594  -6.333  1.00  0.00    -0.275 N 
ATOM    490  H3    U A  20       1.596  -1.095  -5.515  1.00  0.00     0.173 HD
ATOM    491  C4    U A  20       1.544  -1.045  -7.541  1.00  0.00     0.250 A 
ATOM    492  O4    U A  20       0.856  -0.025  -7.559  1.00  0.00    -0.268 OA
ATOM    493  C5    U A  20       2.025  -1.753  -8.684  1.00  0.00     0.092 A 
ATOM    494  C2'   U A  20       3.200  -5.818  -7.733  1.00  0.00     0.199 C 
ATOM    495  O2'   U A  20       2.465  -6.458  -6.707  1.00  0.00    -0.388 OA
ATOM    496 'HO2   U A  20       3.069  -7.064  -6.275  1.00  0.00     0.210 HD
ATOM    497  C3'   U A  20       4.404  -6.654  -8.151  1.00  0.00     0.198 C 
ATOM    498  O3'   U A  20       4.906  -7.450  -7.080  1.00  0.00    -0.279 OA
ATOM    499  P     U A  21       5.707  -8.807  -7.400  1.00  0.00     0.408 P 
ATOM    500  OP1   U A  21       4.885  -9.595  -8.354  1.00  0.00    -0.624 OA
ATOM    501  OP2   U A  21       6.119  -9.416  -6.110  1.00  0.00    -0.624 OA
ATOM    502  O5'   U A  21       7.017  -8.308  -8.160  1.00  0.00    -0.287 OA
ATOM    503  C5'   U A  21       7.804  -9.208  -8.939  1.00  0.00     0.216 C 
ATOM    504  C4'   U A  21       9.136  -8.577  -9.277  1.00  0.00     0.180 C 
ATOM    505  O4'   U A  21       9.630  -7.865  -8.110  1.00  0.00    -0.353 OA
ATOM    506  C1'   U A  21      10.718  -8.569  -7.540  1.00  0.00     0.264 C 
ATOM    507  N1    U A  21      10.477  -8.696  -6.095  1.00  0.00    -0.280 N 
ATOM    508  C6    U A  21       9.200  -8.805  -5.595  1.00  0.00     0.104 A 
ATOM    509  C2    U A  21      11.575  -8.701  -5.254  1.00  0.00     0.331 A 
ATOM    510  O2    U A  21      12.719  -8.607  -5.656  1.00  0.00    -0.246 OA
ATOM    511  N3    U A  21      11.280  -8.820  -3.920  1.00  0.00    -0.275 N 
ATOM    512  H3    U A  21      12.065  -8.831  -3.288  1.00  0.00     0.173 HD
ATOM    513  C4    U A  21      10.031  -8.931  -3.353  1.00  0.00     0.250 A 
ATOM    514  O4    U A  21       9.929  -9.017  -2.129  1.00  0.00    -0.268 OA
ATOM    515  C5    U A  21       8.951  -8.920  -4.287  1.00  0.00     0.092 A 
ATOM    516  C2'   U A  21      10.831  -9.909  -8.268  1.00  0.00     0.199 C 
ATOM    517  O2'   U A  21      12.199 -10.256  -8.372  1.00  0.00    -0.388 OA
ATOM    518 'HO2   U A  21      12.541  -9.810  -9.149  1.00  0.00     0.210 HD
ATOM    519  C3'   U A  21      10.246  -9.559  -9.631  1.00  0.00     0.198 C 
ATOM    520  O3'   U A  21      11.207  -8.965 -10.502  1.00  0.00    -0.279 OA
ATOM    521  P     A A  22      11.032  -9.097 -12.095  1.00  0.00     0.408 P 
ATOM    522  OP1   A A  22       9.592  -9.334 -12.376  1.00  0.00    -0.624 OA
ATOM    523  OP2   A A  22      12.040 -10.065 -12.598  1.00  0.00    -0.624 OA
ATOM    524  O5'   A A  22      11.419  -7.654 -12.652  1.00  0.00    -0.287 OA
ATOM    525  C5'   A A  22      10.813  -7.132 -13.836  1.00  0.00     0.216 C 
ATOM    526  C4'   A A  22       9.558  -6.360 -13.488  1.00  0.00     0.180 C 
ATOM    527  O4'   A A  22       9.241  -6.575 -12.086  1.00  0.00    -0.353 OA
ATOM    528  C1'   A A  22       8.764  -5.371 -11.513  1.00  0.00     0.262 C 
ATOM    529  N9    A A  22       9.693  -4.962 -10.461  1.00  0.00    -0.294 N 
ATOM    530  C4    A A  22       9.353  -4.477  -9.221  1.00  0.00     0.167 A 
ATOM    531  N3    A A  22       8.117  -4.290  -8.732  1.00  0.00    -0.222 NA
ATOM    532  C2    A A  22       8.170  -3.801  -7.496  1.00  0.00     0.237 A 
ATOM    533  N1    A A  22       9.242  -3.501  -6.748  1.00  0.00    -0.222 NA
ATOM    534  C6    A A  22      10.470  -3.701  -7.272  1.00  0.00     0.155 A 
ATOM    535  N6    A A  22      11.535  -3.400  -6.529  1.00  0.00    -0.382 N 
ATOM    536  H61   A A  22      12.463  -3.540  -6.902  1.00  0.00     0.157 HD
ATOM    537  H62   A A  22      11.414  -3.030  -5.599  1.00  0.00     0.157 HD
ATOM    538  C5    A A  22      10.549  -4.216  -8.578  1.00  0.00     0.149 A 
ATOM    539  N7    A A  22      11.625  -4.535  -9.395  1.00  0.00    -0.236 NA
ATOM    540  C8    A A  22      11.065  -4.973 -10.495  1.00  0.00     0.214 A 
ATOM    541  C2'   A A  22       8.624  -4.345 -12.636  1.00  0.00     0.199 C 
ATOM    542  O2'   A A  22       7.316  -4.431 -13.168  1.00  0.00    -0.388 OA
ATOM    543 'HO2   A A  22       7.018  -3.535 -13.330  1.00  0.00     0.210 HD
ATOM    544  C3'   A A  22       9.664  -4.848 -13.630  1.00  0.00     0.198 C 
ATOM    545  O3'   A A  22       9.391  -4.426 -14.963  1.00  0.00    -0.279 OA
ATOM    546  P     U A  23       9.610  -2.886 -15.373  1.00  0.00     0.408 P 
ATOM    547  OP1   U A  23       8.530  -2.098 -14.724  1.00  0.00    -0.624 OA
ATOM    548  OP2   U A  23       9.783  -2.815 -16.846  1.00  0.00    -0.624 OA
ATOM    549  O5'   U A  23      10.997  -2.501 -14.690  1.00  0.00    -0.287 OA
ATOM    550  C5'   U A  23      11.520  -1.175 -14.774  1.00  0.00     0.216 C 
ATOM    551  C4'   U A  23      10.736  -0.246 -13.875  1.00  0.00     0.180 C 
ATOM    552  O4'   U A  23      10.454  -0.926 -12.628  1.00  0.00    -0.353 OA
ATOM    553  C1'   U A  23      10.405   0.017 -11.574  1.00  0.00     0.264 C 
ATOM    554  N1    U A  23      11.283  -0.458 -10.494  1.00  0.00    -0.280 N 
ATOM    555  C6    U A  23      12.320  -1.329 -10.749  1.00  0.00     0.104 A 
ATOM    556  C2    U A  23      11.032  -0.004  -9.213  1.00  0.00     0.331 A 
ATOM    557  O2    U A  23      10.131   0.771  -8.948  1.00  0.00    -0.246 OA
ATOM    558  N3    U A  23      11.879  -0.489  -8.249  1.00  0.00    -0.275 N 
ATOM    559  H3    U A  23      11.711  -0.173  -7.306  1.00  0.00     0.173 HD
ATOM    560  C4    U A  23      12.929  -1.359  -8.431  1.00  0.00     0.250 A 
ATOM    561  O4    U A  23      13.595  -1.714  -7.459  1.00  0.00    -0.268 OA
ATOM    562  C5    U A  23      13.127  -1.779  -9.783  1.00  0.00     0.092 A 
ATOM    563  C2'   U A  23      10.795   1.390 -12.133  1.00  0.00     0.199 C 
ATOM    564  O2'   U A  23       9.612   2.135 -12.351  1.00  0.00    -0.388 OA
ATOM    565 'HO2   U A  23       9.571   2.332 -13.287  1.00  0.00     0.210 HD
ATOM    566  C3'   U A  23      11.464   1.022 -13.456  1.00  0.00     0.198 C 
ATOM    567  O3'   U A  23      11.314   2.043 -14.439  1.00  0.00    -0.279 OA
ATOM    568  P     C A  24      12.453   3.165 -14.610  1.00  0.00     0.408 P 
ATOM    569  OP1   C A  24      13.492   2.609 -15.512  1.00  0.00    -0.624 OA
ATOM    570  OP2   C A  24      12.839   3.657 -13.263  1.00  0.00    -0.624 OA
ATOM    571  O5'   C A  24      11.717   4.346 -15.385  1.00  0.00    -0.287 OA
ATOM    572  C5'   C A  24      10.396   4.751 -15.029  1.00  0.00     0.216 C 
ATOM    573  C4'   C A  24      10.115   6.138 -15.558  1.00  0.00     0.180 C 
ATOM    574  O4'   C A  24      11.157   7.040 -15.092  1.00  0.00    -0.353 OA
ATOM    575  C1'   C A  24      11.534   7.920 -16.136  1.00  0.00     0.264 C 
ATOM    576  N1    C A  24      12.925   7.622 -16.514  1.00  0.00    -0.278 N 
ATOM    577  C6    C A  24      13.390   6.336 -16.515  1.00  0.00     0.102 A 
ATOM    578  C2    C A  24      13.768   8.677 -16.875  1.00  0.00     0.352 A 
ATOM    579  O2    C A  24      13.323   9.832 -16.861  1.00  0.00    -0.244 OA
ATOM    580  N3    C A  24      15.046   8.410 -17.228  1.00  0.00    -0.177 NA
ATOM    581  C4    C A  24      15.488   7.152 -17.228  1.00  0.00     0.128 A 
ATOM    582  N4    C A  24      16.753   6.939 -17.586  1.00  0.00    -0.384 N 
ATOM    583  H41   C A  24      17.125   6.001 -17.599  1.00  0.00     0.157 HD
ATOM    584  H42   C A  24      17.334   7.724 -17.843  1.00  0.00     0.157 HD
ATOM    585  C5    C A  24      14.653   6.058 -16.860  1.00  0.00     0.067 A 
ATOM    586  C2'   C A  24      10.534   7.730 -17.276  1.00  0.00     0.199 C 
ATOM    587  O2'   C A  24       9.434   8.596 -17.067  1.00  0.00    -0.388 OA
ATOM    588 'HO2   C A  24       8.662   8.043 -16.940  1.00  0.00     0.210 HD
ATOM    589  C3'   C A  24      10.134   6.273 -17.076  1.00  0.00     0.198 C 
ATOM    590  O3'   C A  24       8.862   5.982 -17.648  1.00  0.00    -0.279 OA
ATOM    591  P     A A  25       8.774   5.385 -19.139  1.00  0.00     0.408 P 
ATOM    592  OP1   A A  25       7.335   5.244 -19.482  1.00  0.00    -0.624 OA
ATOM    593  OP2   A A  25       9.666   4.200 -19.220  1.00  0.00    -0.624 OA
ATOM    594  O5'   A A  25       9.391   6.534 -20.055  1.00  0.00    -0.287 OA
ATOM    595  C5'   A A  25       8.692   7.759 -20.271  1.00  0.00     0.216 C 
ATOM    596  C4'   A A  25       9.114   8.375 -21.586  1.00  0.00     0.180 C 
ATOM    597  O4'   A A  25      10.393   9.042 -21.395  1.00  0.00    -0.353 OA
ATOM    598  C1'   A A  25      11.267   8.716 -22.459  1.00  0.00     0.262 C 
ATOM    599  N9    A A  25      12.322   7.850 -21.937  1.00  0.00    -0.294 N 
ATOM    600  C4    A A  25      13.544   7.614 -22.519  1.00  0.00     0.167 A 
ATOM    601  N3    A A  25      14.012   8.125 -23.669  1.00  0.00    -0.222 NA
ATOM    602  C2    A A  25      15.238   7.673 -23.920  1.00  0.00     0.237 A 
ATOM    603  N1    A A  25      15.993   6.829 -23.205  1.00  0.00    -0.222 NA
ATOM    604  C6    A A  25      15.492   6.332 -22.054  1.00  0.00     0.155 A 
ATOM    605  N6    A A  25      16.241   5.487 -21.346  1.00  0.00    -0.382 N 
ATOM    606  H61   A A  25      15.881   5.102 -20.483  1.00  0.00     0.157 HD
ATOM    607  H62   A A  25      17.159   5.232 -21.677  1.00  0.00     0.157 HD
ATOM    608  C5    A A  25      14.200   6.735 -21.674  1.00  0.00     0.149 A 
ATOM    609  N7    A A  25      13.408   6.422 -20.579  1.00  0.00    -0.236 NA
ATOM    610  C8    A A  25      12.308   7.107 -20.782  1.00  0.00     0.214 A 
ATOM    611  C2'   A A  25      10.424   8.067 -23.553  1.00  0.00     0.199 C 
ATOM    612  O2'   A A  25       9.884   9.087 -24.375  1.00  0.00    -0.388 OA
ATOM    613 'HO2   A A  25       9.519   8.661 -25.152  1.00  0.00     0.210 HD
ATOM    614  C3'   A A  25       9.341   7.387 -22.725  1.00  0.00     0.198 C 
ATOM    615  O3'   A A  25       8.145   7.165 -23.467  1.00  0.00    -0.279 OA
ATOM    616  P     C A  26       8.139   6.100 -24.672  1.00  0.00     0.408 P 
ATOM    617  OP1   C A  26       6.732   5.669 -24.876  1.00  0.00    -0.624 OA
ATOM    618  OP2   C A  26       9.187   5.081 -24.410  1.00  0.00    -0.624 OA
ATOM    619  O5'   C A  26       8.583   6.952 -25.943  1.00  0.00    -0.287 OA
ATOM    620  C5'   C A  26       8.908   6.314 -27.179  1.00  0.00     0.216 C 
ATOM    621  C4'   C A  26       9.589   7.292 -28.107  1.00  0.00     0.180 C 
ATOM    622  O4'   C A  26      10.623   8.002 -27.368  1.00  0.00    -0.353 OA
ATOM    623  C1'   C A  26      11.796   8.097 -28.158  1.00  0.00     0.264 C 
ATOM    624  N1    C A  26      12.840   7.261 -27.540  1.00  0.00    -0.278 N 
ATOM    625  C6    C A  26      12.516   6.294 -26.630  1.00  0.00     0.102 A 
ATOM    626  C2    C A  26      14.175   7.470 -27.902  1.00  0.00     0.352 A 
ATOM    627  O2    C A  26      14.443   8.354 -28.728  1.00  0.00    -0.244 OA
ATOM    628  N3    C A  26      15.138   6.703 -27.343  1.00  0.00    -0.177 NA
ATOM    629  C4    C A  26      14.809   5.761 -26.459  1.00  0.00     0.128 A 
ATOM    630  N4    C A  26      15.793   5.031 -25.936  1.00  0.00    -0.384 N 
ATOM    631  H41   C A  26      15.583   4.310 -25.264  1.00  0.00     0.157 HD
ATOM    632  H42   C A  26      16.743   5.206 -26.223  1.00  0.00     0.157 HD
ATOM    633  C5    C A  26      13.459   5.526 -26.071  1.00  0.00     0.067 A 
ATOM    634  C2'   C A  26      11.419   7.670 -29.575  1.00  0.00     0.199 C 
ATOM    635  O2'   C A  26      10.917   8.795 -30.273  1.00  0.00    -0.388 OA
ATOM    636 'HO2   C A  26      10.137   8.499 -30.741  1.00  0.00     0.210 HD
ATOM    637  C3'   C A  26      10.314   6.662 -29.290  1.00  0.00     0.198 C 
ATOM    638  O3'   C A  26       9.441   6.480 -30.403  1.00  0.00    -0.279 OA
ATOM    639  P     G A  27       9.196   5.005 -30.997  1.00  0.00     0.408 P 
ATOM    640  OP1   G A  27       8.018   5.083 -31.900  1.00  0.00    -0.624 OA
ATOM    641  OP2   G A  27       9.192   4.036 -29.870  1.00  0.00    -0.624 OA
ATOM    642  O5'   G A  27      10.487   4.726 -31.889  1.00  0.00    -0.287 OA
ATOM    643  C5'   G A  27      10.617   5.294 -33.192  1.00  0.00     0.216 C 
ATOM    644  C4'   G A  27      12.077   5.436 -33.559  1.00  0.00     0.180 C 
ATOM    645  O4'   G A  27      12.832   5.864 -32.397  1.00  0.00    -0.353 OA
ATOM    646  C1'   G A  27      14.160   5.375 -32.494  1.00  0.00     0.262 C 
ATOM    647  N9    G A  27      14.481   4.655 -31.265  1.00  0.00    -0.293 N 
ATOM    648  C4    G A  27      15.570   3.842 -31.060  1.00  0.00     0.187 A 
ATOM    649  N3    G A  27      16.531   3.565 -31.964  1.00  0.00    -0.044 NA
ATOM    650  C2    G A  27      17.449   2.751 -31.476  1.00  0.00     0.703 A 
ATOM    651  N2    G A  27      18.470   2.373 -32.248  1.00  0.00    -0.233 N 
ATOM    652  H21   G A  27      18.523   2.718 -33.196  1.00  0.00     0.174 HD
ATOM    653  H22   G A  27      19.181   1.754 -31.893  1.00  0.00     0.174 HD
ATOM    654  N1    G A  27      17.429   2.249 -30.200  1.00  0.00    -0.153 N 
ATOM    655  H1    G A  27      18.180   1.634 -29.925  1.00  0.00     0.187 HD
ATOM    656  C6    G A  27      16.451   2.520 -29.249  1.00  0.00     0.292 A 
ATOM    657  O6    G A  27      16.530   2.014 -28.124  1.00  0.00    -0.265 OA
ATOM    658  C5    G A  27      15.454   3.393 -29.762  1.00  0.00     0.173 A 
ATOM    659  N7    G A  27      14.314   3.912 -29.162  1.00  0.00    -0.234 NA
ATOM    660  C8    G A  27      13.771   4.651 -30.089  1.00  0.00     0.214 A 
ATOM    661  C2'   G A  27      14.248   4.506 -33.753  1.00  0.00     0.199 C 
ATOM    662  O2'   G A  27      14.757   5.295 -34.812  1.00  0.00    -0.388 OA
ATOM    663 'HO2   G A  27      14.185   5.148 -35.567  1.00  0.00     0.210 HD
ATOM    664  C3'   G A  27      12.782   4.156 -33.982  1.00  0.00     0.198 C 
ATOM    665  O3'   G A  27      12.511   3.820 -35.340  1.00  0.00    -0.279 OA
ATOM    666  P     C A  28      12.600   2.285 -35.816  1.00  0.00     0.408 P 
ATOM    667  OP1   C A  28      12.400   2.261 -37.288  1.00  0.00    -0.624 OA
ATOM    668  OP2   C A  28      11.716   1.473 -34.942  1.00  0.00    -0.624 OA
ATOM    669  O5'   C A  28      14.110   1.873 -35.512  1.00  0.00    -0.287 OA
ATOM    670  C5'   C A  28      15.180   2.333 -36.336  1.00  0.00     0.216 C 
ATOM    671  C4'   C A  28      16.336   1.361 -36.282  1.00  0.00     0.180 C 
ATOM    672  O4'   C A  28      17.049   1.546 -35.025  1.00  0.00    -0.353 OA
ATOM    673  C1'   C A  28      17.396   0.284 -34.482  1.00  0.00     0.264 C 
ATOM    674  N1    C A  28      16.608   0.071 -33.257  1.00  0.00    -0.278 N 
ATOM    675  C6    C A  28      15.506   0.833 -32.991  1.00  0.00     0.102 A 
ATOM    676  C2    C A  28      17.005  -0.928 -32.366  1.00  0.00     0.352 A 
ATOM    677  O2    C A  28      18.006  -1.609 -32.631  1.00  0.00    -0.244 OA
ATOM    678  N3    C A  28      16.291  -1.130 -31.237  1.00  0.00    -0.177 NA
ATOM    679  C4    C A  28      15.219  -0.378 -30.985  1.00  0.00     0.128 A 
ATOM    680  N4    C A  28      14.549  -0.611 -29.858  1.00  0.00    -0.384 N 
ATOM    681  H41   C A  28      13.731  -0.064 -29.628  1.00  0.00     0.157 HD
ATOM    682  H42   C A  28      14.861  -1.340 -29.233  1.00  0.00     0.157 HD
ATOM    683  C5    C A  28      14.788   0.647 -31.876  1.00  0.00     0.067 A 
ATOM    684  C2'   C A  28      17.131  -0.756 -35.568  1.00  0.00     0.199 C 
ATOM    685  O2'   C A  28      18.270  -0.840 -36.405  1.00  0.00    -0.388 OA
ATOM    686 'HO2   C A  28      17.953  -1.033 -37.288  1.00  0.00     0.210 HD
ATOM    687  C3'   C A  28      15.956  -0.115 -36.292  1.00  0.00     0.198 C 
ATOM    688  O3'   C A  28      15.793  -0.613 -37.616  1.00  0.00    -0.279 OA
ATOM    689  P     U A  29      14.762  -1.817 -37.896  1.00  0.00     0.408 P 
ATOM    690  OP1   U A  29      14.634  -1.960 -39.368  1.00  0.00    -0.624 OA
ATOM    691  OP2   U A  29      13.547  -1.596 -37.070  1.00  0.00    -0.624 OA
ATOM    692  O5'   U A  29      15.514  -3.106 -37.334  1.00  0.00    -0.287 OA
ATOM    693  C5'   U A  29      16.743  -3.546 -37.909  1.00  0.00     0.216 C 
ATOM    694  C4'   U A  29      17.389  -4.593 -37.030  1.00  0.00     0.180 C 
ATOM    695  O4'   U A  29      17.619  -4.030 -35.710  1.00  0.00    -0.353 OA
ATOM    696  C1'   U A  29      17.422  -5.031 -34.725  1.00  0.00     0.264 C 
ATOM    697  N1    U A  29      16.317  -4.616 -33.849  1.00  0.00    -0.280 N 
ATOM    698  C6    U A  29      15.417  -3.650 -34.239  1.00  0.00     0.104 A 
ATOM    699  C2    U A  29      16.206  -5.236 -32.619  1.00  0.00     0.331 A 
ATOM    700  O2    U A  29      16.982  -6.093 -32.236  1.00  0.00    -0.246 OA
ATOM    701  N3    U A  29      15.153  -4.816 -31.851  1.00  0.00    -0.275 N 
ATOM    702  H3    U A  29      15.057  -5.260 -30.950  1.00  0.00     0.173 HD
ATOM    703  C4    U A  29      14.220  -3.859 -32.176  1.00  0.00     0.250 A 
ATOM    704  O4    U A  29      13.323  -3.595 -31.374  1.00  0.00    -0.268 OA
ATOM    705  C5    U A  29      14.402  -3.262 -33.461  1.00  0.00     0.092 A 
ATOM    706  C2'   U A  29      17.153  -6.346 -35.456  1.00  0.00     0.199 C 
ATOM    707  O2'   U A  29      18.386  -7.005 -35.676  1.00  0.00    -0.388 OA
ATOM    708 'HO2   U A  29      18.184  -7.905 -35.933  1.00  0.00     0.210 HD
ATOM    709  C3'   U A  29      16.554  -5.836 -36.759  1.00  0.00     0.198 C 
ATOM    710  O3'   U A  29      16.654  -6.786 -37.817  1.00  0.00    -0.279 OA
ATOM    711  P     U A  30      15.511  -7.904 -37.998  1.00  0.00     0.408 P 
ATOM    712  OP1   U A  30      15.742  -8.569 -39.306  1.00  0.00    -0.624 OA
ATOM    713  OP2   U A  30      14.192  -7.283 -37.713  1.00  0.00    -0.624 OA
ATOM    714  O5'   U A  30      15.814  -8.959 -36.841  1.00  0.00    -0.287 OA
ATOM    715  C5'   U A  30      16.720 -10.042 -37.052  1.00  0.00     0.216 C 
ATOM    716  C4'   U A  30      16.828 -10.886 -35.801  1.00  0.00     0.180 C 
ATOM    717  O4'   U A  30      16.993 -10.011 -34.649  1.00  0.00    -0.353 OA
ATOM    718  C1'   U A  30      16.246 -10.519 -33.554  1.00  0.00     0.264 C 
ATOM    719  N1    U A  30      15.170  -9.567 -33.243  1.00  0.00    -0.280 N 
ATOM    720  C6    U A  30      14.789  -8.602 -34.148  1.00  0.00     0.104 A 
ATOM    721  C2    U A  30      14.549  -9.672 -32.012  1.00  0.00     0.331 A 
ATOM    722  O2    U A  30      14.856 -10.511 -31.185  1.00  0.00    -0.246 OA
ATOM    723  N3    U A  30      13.554  -8.757 -31.785  1.00  0.00    -0.275 N 
ATOM    724  H3    U A  30      13.086  -8.820 -30.893  1.00  0.00     0.173 HD
ATOM    725  C4    U A  30      13.126  -7.768 -32.640  1.00  0.00     0.250 A 
ATOM    726  O4    U A  30      12.216  -7.019 -32.290  1.00  0.00    -0.268 OA
ATOM    727  C5    U A  30      13.817  -7.724 -33.890  1.00  0.00     0.092 A 
ATOM    728  C2'   U A  30      15.739 -11.902 -33.960  1.00  0.00     0.199 C 
ATOM    729  O2'   U A  30      16.731 -12.861 -33.643  1.00  0.00    -0.388 OA
ATOM    730 'HO2   U A  30      16.752 -13.487 -34.366  1.00  0.00     0.210 HD
ATOM    731  C3'   U A  30      15.602 -11.723 -35.465  1.00  0.00     0.198 C 
ATOM    732  O3'   U A  30      15.600 -12.965 -36.164  1.00  0.00    -0.279 OA
ATOM    733  P     C A  31      14.203 -13.691 -36.497  1.00  0.00     0.408 P 
ATOM    734  OP1   C A  31      14.515 -14.935 -37.244  1.00  0.00    -0.624 OA
ATOM    735  OP2   C A  31      13.283 -12.688 -37.091  1.00  0.00    -0.624 OA
ATOM    736  O5'   C A  31      13.632 -14.100 -35.066  1.00  0.00    -0.287 OA
ATOM    737  C5'   C A  31      14.326 -15.028 -34.235  1.00  0.00     0.216 C 
ATOM    738  C4'   C A  31      13.630 -15.158 -32.901  1.00  0.00     0.180 C 
ATOM    739  O4'   C A  31      13.659 -13.877 -32.219  1.00  0.00    -0.353 OA
ATOM    740  C1'   C A  31      12.479 -13.722 -31.448  1.00  0.00     0.264 C 
ATOM    741  N1    C A  31      11.794 -12.494 -31.884  1.00  0.00    -0.278 N 
ATOM    742  C6    C A  31      12.091 -11.910 -33.085  1.00  0.00     0.102 A 
ATOM    743  C2    C A  31      10.830 -11.929 -31.046  1.00  0.00     0.352 A 
ATOM    744  O2    C A  31      10.578 -12.476 -29.963  1.00  0.00    -0.244 OA
ATOM    745  N3    C A  31      10.194 -10.802 -31.434  1.00  0.00    -0.177 NA
ATOM    746  C4    C A  31      10.491 -10.238 -32.605  1.00  0.00     0.128 A 
ATOM    747  N4    C A  31       9.839  -9.127 -32.942  1.00  0.00    -0.384 N 
ATOM    748  H41   C A  31      10.033  -8.666 -33.819  1.00  0.00     0.157 HD
ATOM    749  H42   C A  31       9.148  -8.744 -32.311  1.00  0.00     0.157 HD
ATOM    750  C5    C A  31      11.471 -10.791 -33.481  1.00  0.00     0.067 A 
ATOM    751  C2'   C A  31      11.637 -14.986 -31.626  1.00  0.00     0.199 C 
ATOM    752  O2'   C A  31      11.943 -15.888 -30.579  1.00  0.00    -0.388 OA
ATOM    753 'HO2   C A  31      12.108 -16.738 -30.988  1.00  0.00     0.210 HD
ATOM    754  C3'   C A  31      12.150 -15.505 -32.964  1.00  0.00     0.198 C 
ATOM    755  O3'   C A  31      11.943 -16.905 -33.122  1.00  0.00    -0.279 OA
ATOM    756  P     C A  32      10.598 -17.441 -33.822  1.00  0.00     0.408 P 
ATOM    757  OP1   C A  32      10.752 -18.906 -34.011  1.00  0.00    -0.624 OA
ATOM    758  OP2   C A  32      10.300 -16.578 -34.993  1.00  0.00    -0.624 OA
ATOM    759  O5'   C A  32       9.468 -17.196 -32.725  1.00  0.00    -0.287 OA
ATOM    760  C5'   C A  32       9.442 -17.953 -31.515  1.00  0.00     0.216 C 
ATOM    761  C4'   C A  32       8.193 -17.635 -30.727  1.00  0.00     0.180 C 
ATOM    762  O4'   C A  32       8.312 -16.300 -30.169  1.00  0.00    -0.353 OA
ATOM    763  C1'   C A  32       7.041 -15.672 -30.161  1.00  0.00     0.264 C 
ATOM    764  N1    C A  32       7.124 -14.444 -30.970  1.00  0.00    -0.278 N 
ATOM    765  C6    C A  32       8.011 -14.344 -32.006  1.00  0.00     0.102 A 
ATOM    766  C2    C A  32       6.279 -13.378 -30.662  1.00  0.00     0.352 A 
ATOM    767  O2    C A  32       5.485 -13.494 -29.718  1.00  0.00    -0.244 OA
ATOM    768  N3    C A  32       6.345 -12.246 -31.397  1.00  0.00    -0.177 NA
ATOM    769  C4    C A  32       7.216 -12.156 -32.403  1.00  0.00     0.128 A 
ATOM    770  N4    C A  32       7.249 -11.019 -33.096  1.00  0.00    -0.384 N 
ATOM    771  H41   C A  32       7.892 -10.907 -33.865  1.00  0.00     0.157 HD
ATOM    772  H42   C A  32       6.618 -10.268 -32.849  1.00  0.00     0.157 HD
ATOM    773  C5    C A  32       8.091 -13.229 -32.742  1.00  0.00     0.067 A 
ATOM    774  C2'   C A  32       6.018 -16.683 -30.683  1.00  0.00     0.199 C 
ATOM    775  O2'   C A  32       5.473 -17.386 -29.582  1.00  0.00    -0.388 OA
ATOM    776 'HO2   C A  32       5.511 -18.317 -29.802  1.00  0.00     0.210 HD
ATOM    777  C3'   C A  32       6.901 -17.592 -31.531  1.00  0.00     0.198 C 
ATOM    778  O3'   C A  32       6.344 -18.893 -31.695  1.00  0.00    -0.279 OA
ATOM    779  P     U A  33       5.367 -19.193 -32.936  1.00  0.00     0.408 P 
ATOM    780  OP1   U A  33       4.952 -20.615 -32.842  1.00  0.00    -0.624 OA
ATOM    781  OP2   U A  33       6.019 -18.700 -34.176  1.00  0.00    -0.624 OA
ATOM    782  O5'   U A  33       4.093 -18.279 -32.652  1.00  0.00    -0.287 OA
ATOM    783  C5'   U A  33       3.232 -18.541 -31.543  1.00  0.00     0.216 C 
ATOM    784  C4'   U A  33       1.948 -17.757 -31.687  1.00  0.00     0.180 C 
ATOM    785  O4'   U A  33       2.187 -16.386 -31.271  1.00  0.00    -0.353 OA
ATOM    786  C1'   U A  33       1.470 -15.499 -32.109  1.00  0.00     0.264 C 
ATOM    787  N1    U A  33       2.436 -14.614 -32.775  1.00  0.00    -0.280 N 
ATOM    788  C6    U A  33       3.633 -15.097 -33.254  1.00  0.00     0.104 A 
ATOM    789  C2    U A  33       2.106 -13.276 -32.902  1.00  0.00     0.331 A 
ATOM    790  O2    U A  33       1.058 -12.810 -32.493  1.00  0.00    -0.246 OA
ATOM    791  N3    U A  33       3.052 -12.503 -33.527  1.00  0.00    -0.275 N 
ATOM    792  H3    U A  33       2.827 -11.526 -33.642  1.00  0.00     0.173 HD
ATOM    793  C4    U A  33       4.265 -12.919 -34.026  1.00  0.00     0.250 A 
ATOM    794  O4    U A  33       5.014 -12.098 -34.555  1.00  0.00    -0.268 OA
ATOM    795  C5    U A  33       4.531 -14.314 -33.858  1.00  0.00     0.092 A 
ATOM    796  C2'   U A  33       0.629 -16.336 -33.075  1.00  0.00     0.199 C 
ATOM    797  O2'   U A  33      -0.656 -16.524 -32.512  1.00  0.00    -0.388 OA
ATOM    798 'HO2   U A  33      -0.778 -17.469 -32.413  1.00  0.00     0.210 HD
ATOM    799  C3'   U A  33       1.410 -17.647 -33.106  1.00  0.00     0.198 C 
ATOM    800  O3'   U A  33       0.590 -18.766 -33.429  1.00  0.00    -0.279 OA
ATOM    801  P     U A  34       0.123 -19.008 -34.950  1.00  0.00     0.408 P 
ATOM    802  OP1   U A  34       0.597 -20.359 -35.343  1.00  0.00    -0.624 OA
ATOM    803  OP2   U A  34       0.515 -17.828 -35.764  1.00  0.00    -0.624 OA
ATOM    804  O5'   U A  34      -1.466 -19.057 -34.856  1.00  0.00    -0.287 OA
ATOM    805  C5'   U A  34      -2.236 -17.862 -34.716  1.00  0.00     0.216 C 
ATOM    806  C4'   U A  34      -3.044 -17.609 -35.970  1.00  0.00     0.180 C 
ATOM    807  O4'   U A  34      -2.477 -18.383 -37.063  1.00  0.00    -0.353 OA
ATOM    808  C1'   U A  34      -3.515 -18.970 -37.825  1.00  0.00     0.264 C 
ATOM    809  N1    U A  34      -3.444 -20.431 -37.664  1.00  0.00    -0.280 N 
ATOM    810  C6    U A  34      -2.673 -21.006 -36.678  1.00  0.00     0.104 A 
ATOM    811  C2    U A  34      -4.180 -21.210 -38.537  1.00  0.00     0.331 A 
ATOM    812  O2    U A  34      -4.872 -20.741 -39.422  1.00  0.00    -0.246 OA
ATOM    813  N3    U A  34      -4.076 -22.562 -38.336  1.00  0.00    -0.275 N 
ATOM    814  H3    U A  34      -4.606 -23.150 -38.960  1.00  0.00     0.173 HD
ATOM    815  C4    U A  34      -3.329 -23.202 -37.374  1.00  0.00     0.250 A 
ATOM    816  O4    U A  34      -3.341 -24.431 -37.320  1.00  0.00    -0.268 OA
ATOM    817  C5    U A  34      -2.597 -22.329 -36.513  1.00  0.00     0.092 A 
ATOM    818  C2'   U A  34      -4.833 -18.362 -37.348  1.00  0.00     0.199 C 
ATOM    819  O2'   U A  34      -5.086 -17.184 -38.091  1.00  0.00    -0.388 OA
ATOM    820 'HO2   U A  34      -5.093 -16.455 -37.468  1.00  0.00     0.210 HD
ATOM    821  C3'   U A  34      -4.503 -18.038 -35.896  1.00  0.00     0.198 C 
ATOM    822  O3'   U A  34      -5.326 -16.997 -35.377  1.00  0.00    -0.279 OA
ATOM    823  P     A A  35      -6.758 -17.352 -34.737  1.00  0.00     0.408 P 
ATOM    824  OP1   A A  35      -6.536 -17.638 -33.296  1.00  0.00    -0.624 OA
ATOM    825  OP2   A A  35      -7.417 -18.371 -35.592  1.00  0.00    -0.624 OA
ATOM    826  O5'   A A  35      -7.582 -15.993 -34.853  1.00  0.00    -0.287 OA
ATOM    827  C5'   A A  35      -6.968 -14.735 -34.579  1.00  0.00     0.216 C 
ATOM    828  C4'   A A  35      -7.790 -13.614 -35.171  1.00  0.00     0.180 C 
ATOM    829  O4'   A A  35      -7.809 -13.771 -36.618  1.00  0.00    -0.353 OA
ATOM    830  C1'   A A  35      -9.134 -13.988 -37.057  1.00  0.00     0.262 C 
ATOM    831  N9    A A  35      -9.110 -14.985 -38.127  1.00  0.00    -0.294 N 
ATOM    832  C4    A A  35      -9.744 -14.889 -39.342  1.00  0.00     0.167 A 
ATOM    833  N3    A A  35     -10.504 -13.872 -39.786  1.00  0.00    -0.222 NA
ATOM    834  C2    A A  35     -10.954 -14.124 -41.012  1.00  0.00     0.237 A 
ATOM    835  N1    A A  35     -10.748 -15.197 -41.787  1.00  0.00    -0.222 NA
ATOM    836  C6    A A  35      -9.981 -16.200 -41.310  1.00  0.00     0.155 A 
ATOM    837  N6    A A  35      -9.780 -17.270 -42.082  1.00  0.00    -0.382 N 
ATOM    838  H61   A A  35      -9.209 -18.033 -41.744  1.00  0.00     0.157 HD
ATOM    839  H62   A A  35     -10.200 -17.316 -42.998  1.00  0.00     0.157 HD
ATOM    840  C5    A A  35      -9.441 -16.055 -40.020  1.00  0.00     0.149 A 
ATOM    841  N7    A A  35      -8.630 -16.875 -39.247  1.00  0.00    -0.236 NA
ATOM    842  C8    A A  35      -8.463 -16.197 -38.137  1.00  0.00     0.214 A 
ATOM    843  C2'   A A  35      -9.937 -14.409 -35.830  1.00  0.00     0.199 C 
ATOM    844  O2'   A A  35     -11.284 -14.009 -36.007  1.00  0.00    -0.388 OA
ATOM    845 'HO2   A A  35     -11.305 -13.059 -35.891  1.00  0.00     0.210 HD
ATOM    846  C3'   A A  35      -9.255 -13.587 -34.744  1.00  0.00     0.198 C 
ATOM    847  O3'   A A  35      -9.763 -12.255 -34.686  1.00  0.00    -0.279 OA
ATOM    848  P     G A  36      -9.604 -11.391 -33.336  1.00  0.00     0.408 P 
ATOM    849  OP1   G A  36      -9.101 -12.288 -32.264  1.00  0.00    -0.624 OA
ATOM    850  OP2   G A  36     -10.869 -10.640 -33.128  1.00  0.00    -0.624 OA
ATOM    851  O5'   G A  36      -8.462 -10.336 -33.688  1.00  0.00    -0.287 OA
ATOM    852  C5'   G A  36      -7.139 -10.474 -33.167  1.00  0.00     0.216 C 
ATOM    853  C4'   G A  36      -6.146  -9.800 -34.084  1.00  0.00     0.180 C 
ATOM    854  O4'   G A  36      -6.117 -10.524 -35.345  1.00  0.00    -0.353 OA
ATOM    855  C1'   G A  36      -6.125  -9.609 -36.425  1.00  0.00     0.262 C 
ATOM    856  N9    G A  36      -7.399  -9.739 -37.128  1.00  0.00    -0.293 N 
ATOM    857  C4    G A  36      -7.777  -9.073 -38.270  1.00  0.00     0.187 A 
ATOM    858  N3    G A  36      -7.033  -8.173 -38.947  1.00  0.00    -0.044 NA
ATOM    859  C2    G A  36      -7.670  -7.703 -40.003  1.00  0.00     0.703 A 
ATOM    860  N2    G A  36      -7.077  -6.794 -40.783  1.00  0.00    -0.233 N 
ATOM    861  H21   G A  36      -6.148  -6.478 -40.548  1.00  0.00     0.174 HD
ATOM    862  H22   G A  36      -7.557  -6.418 -41.587  1.00  0.00     0.174 HD
ATOM    863  N1    G A  36      -8.933  -8.087 -40.374  1.00  0.00    -0.153 N 
ATOM    864  H1    G A  36      -9.330  -7.668 -41.201  1.00  0.00     0.187 HD
ATOM    865  C6    G A  36      -9.717  -9.013 -39.697  1.00  0.00     0.292 A 
ATOM    866  O6    G A  36     -10.845  -9.289 -40.119  1.00  0.00    -0.265 OA
ATOM    867  C5    G A  36      -9.049  -9.525 -38.553  1.00  0.00     0.173 A 
ATOM    868  N7    G A  36      -9.464 -10.453 -37.608  1.00  0.00    -0.234 NA
ATOM    869  C8    G A  36      -8.455 -10.547 -36.785  1.00  0.00     0.214 A 
ATOM    870  C2'   G A  36      -5.872  -8.217 -35.847  1.00  0.00     0.199 C 
ATOM    871  O2'   G A  36      -4.473  -8.003 -35.780  1.00  0.00    -0.388 OA
ATOM    872 'HO2   G A  36      -4.315  -7.440 -35.021  1.00  0.00     0.210 HD
ATOM    873  C3'   G A  36      -6.477  -8.358 -34.455  1.00  0.00     0.198 C 
ATOM    874  O3'   G A  36      -5.910  -7.438 -33.525  1.00  0.00    -0.279 OA
ATOM    875  P     C A  37      -6.643  -6.035 -33.241  1.00  0.00     0.408 P 
ATOM    876  OP1   C A  37      -5.701  -5.179 -32.476  1.00  0.00    -0.624 OA
ATOM    877  OP2   C A  37      -7.990  -6.321 -32.684  1.00  0.00    -0.624 OA
ATOM    878  O5'   C A  37      -6.833  -5.396 -34.689  1.00  0.00    -0.287 OA
ATOM    879  C5'   C A  37      -5.730  -4.827 -35.397  1.00  0.00     0.216 C 
ATOM    880  C4'   C A  37      -6.221  -4.097 -36.625  1.00  0.00     0.180 C 
ATOM    881  O4'   C A  37      -6.663  -5.075 -37.605  1.00  0.00    -0.353 OA
ATOM    882  C1'   C A  37      -7.853  -4.627 -38.227  1.00  0.00     0.264 C 
ATOM    883  N1    C A  37      -8.937  -5.561 -37.882  1.00  0.00    -0.278 N 
ATOM    884  C6    C A  37      -8.947  -6.208 -36.678  1.00  0.00     0.102 A 
ATOM    885  C2    C A  37      -9.961  -5.779 -38.808  1.00  0.00     0.352 A 
ATOM    886  O2    C A  37      -9.925  -5.182 -39.893  1.00  0.00    -0.244 OA
ATOM    887  N3    C A  37     -10.960  -6.634 -38.499  1.00  0.00    -0.177 NA
ATOM    888  C4    C A  37     -10.960  -7.263 -37.323  1.00  0.00     0.128 A 
ATOM    889  N4    C A  37     -11.962  -8.102 -37.066  1.00  0.00    -0.384 N 
ATOM    890  H41   C A  37     -11.998  -8.598 -36.188  1.00  0.00     0.157 HD
ATOM    891  H42   C A  37     -12.681  -8.242 -37.761  1.00  0.00     0.157 HD
ATOM    892  C5    C A  37      -9.930  -7.060 -36.360  1.00  0.00     0.067 A 
ATOM    893  C2'   C A  37      -8.104  -3.192 -37.767  1.00  0.00     0.199 C 
ATOM    894  O2'   C A  37      -7.452  -2.308 -38.660  1.00  0.00    -0.388 OA
ATOM    895 'HO2   C A  37      -6.684  -1.966 -38.201  1.00  0.00     0.210 HD
ATOM    896  C3'   C A  37      -7.426  -3.193 -36.401  1.00  0.00     0.198 C 
ATOM    897  O3'   C A  37      -7.024  -1.889 -35.994  1.00  0.00    -0.279 OA
ATOM    898  P     A A  38      -7.995  -1.006 -35.067  1.00  0.00     0.408 P 
ATOM    899  OP1   A A  38      -8.050  -1.661 -33.735  1.00  0.00    -0.624 OA
ATOM    900  OP2   A A  38      -9.254  -0.752 -35.813  1.00  0.00    -0.624 OA
ATOM    901  O5'   A A  38      -7.216   0.377 -34.907  1.00  0.00    -0.287 OA
ATOM    902  C5'   A A  38      -6.488   0.942 -35.998  1.00  0.00     0.216 C 
ATOM    903  C4'   A A  38      -5.004   0.914 -35.706  1.00  0.00     0.180 C 
ATOM    904  O4'   A A  38      -4.743   1.769 -34.560  1.00  0.00    -0.353 OA
ATOM    905  C1'   A A  38      -4.276   0.991 -33.475  1.00  0.00     0.262 C 
ATOM    906  N9    A A  38      -4.934   1.464 -32.257  1.00  0.00    -0.294 N 
ATOM    907  C4    A A  38      -4.340   2.139 -31.218  1.00  0.00     0.167 A 
ATOM    908  N3    A A  38      -3.049   2.498 -31.111  1.00  0.00    -0.222 NA
ATOM    909  C2    A A  38      -2.835   3.138 -29.964  1.00  0.00     0.237 A 
ATOM    910  N1    A A  38      -3.699   3.438 -28.986  1.00  0.00    -0.222 NA
ATOM    911  C6    A A  38      -4.989   3.063 -29.126  1.00  0.00     0.155 A 
ATOM    912  N6    A A  38      -5.849   3.361 -28.152  1.00  0.00    -0.382 N 
ATOM    913  H61   A A  38      -6.817   3.088 -28.238  1.00  0.00     0.157 HD
ATOM    914  H62   A A  38      -5.529   3.854 -27.332  1.00  0.00     0.157 HD
ATOM    915  C5    A A  38      -5.346   2.376 -30.299  1.00  0.00     0.149 A 
ATOM    916  N7    A A  38      -6.554   1.859 -30.750  1.00  0.00    -0.236 NA
ATOM    917  C8    A A  38      -6.256   1.330 -31.910  1.00  0.00     0.214 A 
ATOM    918  C2'   A A  38      -4.565  -0.469 -33.812  1.00  0.00     0.199 C 
ATOM    919  O2'   A A  38      -3.566  -1.277 -33.217  1.00  0.00    -0.388 OA
ATOM    920 'HO2   A A  38      -3.516  -2.091 -33.721  1.00  0.00     0.210 HD
ATOM    921  C3'   A A  38      -4.435  -0.451 -35.332  1.00  0.00     0.198 C 
ATOM    922  O3'   A A  38      -3.085  -0.584 -35.767  1.00  0.00    -0.279 OA
ATOM    923  P     U A  39      -2.545  -2.010 -36.279  1.00  0.00     0.408 P 
ATOM    924  OP1   U A  39      -1.060  -1.950 -36.267  1.00  0.00    -0.624 OA
ATOM    925  OP2   U A  39      -3.254  -2.349 -37.540  1.00  0.00    -0.624 OA
ATOM    926  O5'   U A  39      -3.017  -3.030 -35.148  1.00  0.00    -0.287 OA
ATOM    927  C5'   U A  39      -2.203  -4.139 -34.768  1.00  0.00     0.216 C 
ATOM    928  C4'   U A  39      -2.766  -4.796 -33.529  1.00  0.00     0.180 C 
ATOM    929  O4'   U A  39      -3.187  -6.147 -33.864  1.00  0.00    -0.353 OA
ATOM    930  C1'   U A  39      -2.851  -7.030 -32.806  1.00  0.00     0.264 C 
ATOM    931  N1    U A  39      -1.843  -7.981 -33.297  1.00  0.00    -0.280 N 
ATOM    932  C6    U A  39      -0.842  -7.582 -34.152  1.00  0.00     0.104 A 
ATOM    933  C2    U A  39      -1.932  -9.292 -32.867  1.00  0.00     0.331 A 
ATOM    934  O2    U A  39      -2.806  -9.686 -32.115  1.00  0.00    -0.246 OA
ATOM    935  N3    U A  39      -0.958 -10.128 -33.349  1.00  0.00    -0.275 N 
ATOM    936  H3    U A  39      -1.001 -11.089 -33.045  1.00  0.00     0.173 HD
ATOM    937  C4    U A  39       0.071  -9.795 -34.200  1.00  0.00     0.250 A 
ATOM    938  O4    U A  39       0.879 -10.660 -34.539  1.00  0.00    -0.268 OA
ATOM    939  C5    U A  39       0.091  -8.424 -34.602  1.00  0.00     0.092 A 
ATOM    940  C2'   U A  39      -2.367  -6.173 -31.637  1.00  0.00     0.199 C 
ATOM    941  O2'   U A  39      -3.487  -5.804 -30.854  1.00  0.00    -0.388 OA
ATOM    942 'HO2   U A  39      -4.046  -5.250 -31.403  1.00  0.00     0.210 HD
ATOM    943  C3'   U A  39      -1.786  -4.974 -32.377  1.00  0.00     0.198 C 
ATOM    944  O3'   U A  39      -1.714  -3.810 -31.560  1.00  0.00    -0.279 OA
ATOM    945  P     G A  40      -0.328  -3.420 -30.842  1.00  0.00     0.408 P 
ATOM    946  OP1   G A  40      -0.550  -2.153 -30.099  1.00  0.00    -0.624 OA
ATOM    947  OP2   G A  40       0.759  -3.497 -31.852  1.00  0.00    -0.624 OA
ATOM    948  O5'   G A  40      -0.099  -4.585 -29.779  1.00  0.00    -0.287 OA
ATOM    949  C5'   G A  40      -0.901  -4.673 -28.602  1.00  0.00     0.216 C 
ATOM    950  C4'   G A  40      -0.750  -6.035 -27.966  1.00  0.00     0.180 C 
ATOM    951  O4'   G A  40      -0.714  -7.049 -29.006  1.00  0.00    -0.353 OA
ATOM    952  C1'   G A  40       0.166  -8.092 -28.624  1.00  0.00     0.262 C 
ATOM    953  N9    G A  40       1.225  -8.193 -29.622  1.00  0.00    -0.293 N 
ATOM    954  C4    G A  40       2.171  -9.184 -29.706  1.00  0.00     0.187 A 
ATOM    955  N3    G A  40       2.285 -10.242 -28.876  1.00  0.00    -0.044 NA
ATOM    956  C2    G A  40       3.294 -11.024 -29.209  1.00  0.00     0.703 A 
ATOM    957  N2    G A  40       3.548 -12.119 -28.489  1.00  0.00    -0.233 N 
ATOM    958  H21   G A  40       2.965 -12.335 -27.694  1.00  0.00     0.174 HD
ATOM    959  H22   G A  40       4.317 -12.726 -28.739  1.00  0.00     0.174 HD
ATOM    960  N1    G A  40       4.128 -10.790 -30.273  1.00  0.00    -0.153 N 
ATOM    961  H1    G A  40       4.869 -11.453 -30.441  1.00  0.00     0.187 HD
ATOM    962  C6    G A  40       4.033  -9.710 -31.141  1.00  0.00     0.292 A 
ATOM    963  O6    G A  40       4.840  -9.595 -32.071  1.00  0.00    -0.265 OA
ATOM    964  C5    G A  40       2.952  -8.857 -30.795  1.00  0.00     0.173 A 
ATOM    965  N7    G A  40       2.502  -7.683 -31.387  1.00  0.00    -0.234 NA
ATOM    966  C8    G A  40       1.480  -7.328 -30.659  1.00  0.00     0.214 A 
ATOM    967  C2'   G A  40       0.683  -7.773 -27.221  1.00  0.00     0.199 C 
ATOM    968  O2'   G A  40      -0.168  -8.387 -26.271  1.00  0.00    -0.388 OA
ATOM    969 'HO2   G A  40      -0.367  -7.720 -25.613  1.00  0.00     0.210 HD
ATOM    970  C3'   G A  40       0.540  -6.256 -27.189  1.00  0.00     0.198 C 
ATOM    971  O3'   G A  40       0.452  -5.748 -25.860  1.00  0.00    -0.279 OA
ATOM    972  P     G A  41       1.794  -5.375 -25.056  1.00  0.00     0.408 P 
ATOM    973  OP1   G A  41       1.397  -5.054 -23.662  1.00  0.00    -0.624 OA
ATOM    974  OP2   G A  41       2.553  -4.374 -25.850  1.00  0.00    -0.624 OA
ATOM    975  O5'   G A  41       2.626  -6.734 -25.038  1.00  0.00    -0.287 OA
ATOM    976  C5'   G A  41       2.198  -7.847 -24.254  1.00  0.00     0.216 C 
ATOM    977  C4'   G A  41       3.299  -8.880 -24.169  1.00  0.00     0.180 C 
ATOM    978  O4'   G A  41       3.493  -9.484 -25.471  1.00  0.00    -0.353 OA
ATOM    979  C1'   G A  41       4.832  -9.927 -25.586  1.00  0.00     0.262 C 
ATOM    980  N9    G A  41       5.368  -9.450 -26.857  1.00  0.00    -0.293 N 
ATOM    981  C4    G A  41       6.412 -10.002 -27.560  1.00  0.00     0.187 A 
ATOM    982  N3    G A  41       7.125 -11.088 -27.197  1.00  0.00    -0.044 NA
ATOM    983  C2    G A  41       8.065 -11.378 -28.077  1.00  0.00     0.703 A 
ATOM    984  N2    G A  41       8.866 -12.427 -27.871  1.00  0.00    -0.233 N 
ATOM    985  H21   G A  41       8.743 -12.989 -27.042  1.00  0.00     0.174 HD
ATOM    986  H22   G A  41       9.589 -12.655 -28.538  1.00  0.00     0.174 HD
ATOM    987  N1    G A  41       8.290 -10.662 -29.224  1.00  0.00    -0.153 N 
ATOM    988  H1    G A  41       9.036 -10.970 -29.827  1.00  0.00     0.187 HD
ATOM    989  C6    G A  41       7.571  -9.540 -29.620  1.00  0.00     0.292 A 
ATOM    990  O6    G A  41       7.860  -8.968 -30.678  1.00  0.00    -0.265 OA
ATOM    991  C5    G A  41       6.554  -9.215 -28.683  1.00  0.00     0.173 A 
ATOM    992  N7    G A  41       5.619  -8.188 -28.688  1.00  0.00    -0.234 NA
ATOM    993  C8    G A  41       4.939  -8.369 -27.588  1.00  0.00     0.214 A 
ATOM    994  C2'   G A  41       5.610  -9.423 -24.366  1.00  0.00     0.199 C 
ATOM    995  O2'   G A  41       5.749 -10.492 -23.448  1.00  0.00    -0.388 OA
ATOM    996 'HO2   G A  41       6.523 -10.300 -22.916  1.00  0.00     0.210 HD
ATOM    997  C3'   G A  41       4.678  -8.343 -23.817  1.00  0.00     0.198 C 
ATOM    998  O3'   G A  41       4.816  -8.163 -22.410  1.00  0.00    -0.279 OA
ATOM    999  P     A A  42       6.139  -7.468 -21.818  1.00  0.00     0.408 P 
ATOM   1000  OP1   A A  42       5.914  -7.261 -20.365  1.00  0.00    -0.624 OA
ATOM   1001  OP2   A A  42       6.487  -6.308 -22.679  1.00  0.00    -0.624 OA
ATOM   1002  O5'   A A  42       7.267  -8.581 -21.986  1.00  0.00    -0.287 OA
ATOM   1003  C5'   A A  42       8.586  -8.237 -22.408  1.00  0.00     0.216 C 
ATOM   1004  C4'   A A  42       9.335  -9.478 -22.834  1.00  0.00     0.180 C 
ATOM   1005  O4'   A A  42       8.770  -9.952 -24.088  1.00  0.00    -0.353 OA
ATOM   1006  C1'   A A  42       9.811 -10.329 -24.971  1.00  0.00     0.262 C 
ATOM   1007  N9    A A  42       9.821  -9.394 -26.096  1.00  0.00    -0.294 N 
ATOM   1008  C4    A A  42      10.669  -9.422 -27.176  1.00  0.00     0.167 A 
ATOM   1009  N3    A A  42      11.656 -10.304 -27.415  1.00  0.00    -0.222 NA
ATOM   1010  C2    A A  42      12.268 -10.022 -28.564  1.00  0.00     0.237 A 
ATOM   1011  N1    A A  42      12.025  -9.034 -29.435  1.00  0.00    -0.222 NA
ATOM   1012  C6    A A  42      11.026  -8.166 -29.163  1.00  0.00     0.155 A 
ATOM   1013  N6    A A  42      10.783  -7.183 -30.030  1.00  0.00    -0.382 N 
ATOM   1014  H61   A A  42      10.040  -6.524 -29.846  1.00  0.00     0.157 HD
ATOM   1015  H62   A A  42      11.340  -7.097 -30.869  1.00  0.00     0.157 HD
ATOM   1016  C5    A A  42      10.300  -8.356 -27.974  1.00  0.00     0.149 A 
ATOM   1017  N7    A A  42       9.239  -7.663 -27.408  1.00  0.00    -0.236 NA
ATOM   1018  C8    A A  42       8.994  -8.316 -26.298  1.00  0.00     0.214 A 
ATOM   1019  C2'   A A  42      11.108 -10.347 -24.164  1.00  0.00     0.199 C 
ATOM   1020  O2'   A A  42      11.254 -11.622 -23.568  1.00  0.00    -0.388 OA
ATOM   1021 'HO2   A A  42      11.600 -11.480 -22.686  1.00  0.00     0.210 HD
ATOM   1022  C3'   A A  42      10.819  -9.277 -23.118  1.00  0.00     0.198 C 
ATOM   1023  O3'   A A  42      11.602  -9.445 -21.938  1.00  0.00    -0.279 OA
ATOM   1024  P     A A  43      12.866  -8.485 -21.671  1.00  0.00     0.408 P 
ATOM   1025  OP1   A A  43      13.379  -8.795 -20.312  1.00  0.00    -0.624 OA
ATOM   1026  OP2   A A  43      12.476  -7.092 -22.007  1.00  0.00    -0.624 OA
ATOM   1027  O5'   A A  43      13.951  -8.970 -22.734  1.00  0.00    -0.287 OA
ATOM   1028  C5'   A A  43      14.572 -10.248 -22.618  1.00  0.00     0.216 C 
ATOM   1029  C4'   A A  43      15.654 -10.400 -23.662  1.00  0.00     0.180 C 
ATOM   1030  O4'   A A  43      15.030 -10.579 -24.963  1.00  0.00    -0.353 OA
ATOM   1031  C1'   A A  43      15.765  -9.871 -25.947  1.00  0.00     0.262 C 
ATOM   1032  N9    A A  43      14.917  -8.804 -26.477  1.00  0.00    -0.294 N 
ATOM   1033  C4    A A  43      15.122  -8.110 -27.645  1.00  0.00     0.167 A 
ATOM   1034  N3    A A  43      16.123  -8.273 -28.526  1.00  0.00    -0.222 NA
ATOM   1035  C2    A A  43      15.999  -7.421 -29.541  1.00  0.00     0.237 A 
ATOM   1036  N1    A A  43      15.056  -6.495 -29.758  1.00  0.00    -0.222 NA
ATOM   1037  C6    A A  43      14.063  -6.358 -28.853  1.00  0.00     0.155 A 
ATOM   1038  N6    A A  43      13.126  -5.435 -29.071  1.00  0.00    -0.382 N 
ATOM   1039  H61   A A  43      12.376  -5.318 -28.404  1.00  0.00     0.157 HD
ATOM   1040  H62   A A  43      13.165  -4.854 -29.896  1.00  0.00     0.157 HD
ATOM   1041  C5    A A  43      14.082  -7.202 -27.730  1.00  0.00     0.149 A 
ATOM   1042  N7    A A  43      13.234  -7.323 -26.637  1.00  0.00    -0.236 NA
ATOM   1043  C8    A A  43      13.773  -8.283 -25.926  1.00  0.00     0.214 A 
ATOM   1044  C2'   A A  43      17.039  -9.356 -25.281  1.00  0.00     0.199 C 
ATOM   1045  O2'   A A  43      18.042 -10.350 -25.393  1.00  0.00    -0.388 OA
ATOM   1046 'HO2   A A  43      18.799  -9.927 -25.802  1.00  0.00     0.210 HD
ATOM   1047  C3'   A A  43      16.569  -9.197 -23.841  1.00  0.00     0.198 C 
ATOM   1048  O3'   A A  43      17.647  -9.207 -22.910  1.00  0.00    -0.279 OA
ATOM   1049  P     G A  44      18.490  -7.863 -22.646  1.00  0.00     0.408 P 
ATOM   1050  OP1   G A  44      19.469  -8.159 -21.569  1.00  0.00    -0.624 OA
ATOM   1051  OP2   G A  44      17.538  -6.734 -22.481  1.00  0.00    -0.624 OA
ATOM   1052  O5'   G A  44      19.297  -7.637 -24.002  1.00  0.00    -0.287 OA
ATOM   1053  C5'   G A  44      20.437  -8.434 -24.319  1.00  0.00     0.216 C 
ATOM   1054  C4'   G A  44      20.885  -8.165 -25.738  1.00  0.00     0.180 C 
ATOM   1055  O4'   G A  44      19.724  -8.124 -26.609  1.00  0.00    -0.353 OA
ATOM   1056  C1'   G A  44      19.952  -7.202 -27.662  1.00  0.00     0.262 C 
ATOM   1057  N9    G A  44      18.888  -6.203 -27.642  1.00  0.00    -0.293 N 
ATOM   1058  C4    G A  44      18.614  -5.282 -28.626  1.00  0.00     0.187 A 
ATOM   1059  N3    G A  44      19.285  -5.137 -29.787  1.00  0.00    -0.044 NA
ATOM   1060  C2    G A  44      18.787  -4.162 -30.526  1.00  0.00     0.703 A 
ATOM   1061  N2    G A  44      19.338  -3.879 -31.709  1.00  0.00    -0.233 N 
ATOM   1062  H21   G A  44      20.132  -4.415 -32.026  1.00  0.00     0.174 HD
ATOM   1063  H22   G A  44      18.968  -3.130 -32.278  1.00  0.00     0.174 HD
ATOM   1064  N1    G A  44      17.714  -3.392 -30.160  1.00  0.00    -0.153 N 
ATOM   1065  H1    G A  44      17.413  -2.675 -30.801  1.00  0.00     0.187 HD
ATOM   1066  C6    G A  44      17.005  -3.524 -28.971  1.00  0.00     0.292 A 
ATOM   1067  O6    G A  44      16.049  -2.775 -28.740  1.00  0.00    -0.265 OA
ATOM   1068  C5    G A  44      17.530  -4.566 -28.163  1.00  0.00     0.173 A 
ATOM   1069  N7    G A  44      17.131  -5.025 -26.915  1.00  0.00    -0.234 NA
ATOM   1070  C8    G A  44      17.964  -5.993 -26.647  1.00  0.00     0.214 A 
ATOM   1071  C2'   G A  44      21.350  -6.612 -27.470  1.00  0.00     0.199 C 
ATOM   1072  O2'   G A  44      22.267  -7.374 -28.233  1.00  0.00    -0.388 OA
ATOM   1073 'HO2   G A  44      23.056  -7.472 -27.701  1.00  0.00     0.210 HD
ATOM   1074  C3'   G A  44      21.565  -6.825 -25.975  1.00  0.00     0.198 C 
ATOM   1075  O3'   G A  44      22.946  -6.865 -25.623  1.00  0.00    -0.279 OA
ATOM   1076  P     A A  45      23.717  -5.505 -25.242  1.00  0.00     0.408 P 
ATOM   1077  OP1   A A  45      25.053  -5.889 -24.720  1.00  0.00    -0.624 OA
ATOM   1078  OP2   A A  45      22.817  -4.668 -24.407  1.00  0.00    -0.624 OA
ATOM   1079  O5'   A A  45      23.924  -4.772 -26.642  1.00  0.00    -0.287 OA
ATOM   1080  C5'   A A  45      24.763  -5.335 -27.650  1.00  0.00     0.216 C 
ATOM   1081  C4'   A A  45      24.652  -4.533 -28.927  1.00  0.00     0.180 C 
ATOM   1082  O4'   A A  45      23.258  -4.495 -29.333  1.00  0.00    -0.353 OA
ATOM   1083  C1'   A A  45      22.942  -3.215 -29.846  1.00  0.00     0.262 C 
ATOM   1084  N9    A A  45      21.913  -2.620 -28.995  1.00  0.00    -0.294 N 
ATOM   1085  C4    A A  45      20.955  -1.718 -29.391  1.00  0.00     0.167 A 
ATOM   1086  N3    A A  45      20.778  -1.208 -30.621  1.00  0.00    -0.222 NA
ATOM   1087  C2    A A  45      19.752  -0.362 -30.634  1.00  0.00     0.237 A 
ATOM   1088  N1    A A  45      18.943   0.006 -29.631  1.00  0.00    -0.222 NA
ATOM   1089  C6    A A  45      19.150  -0.528 -28.407  1.00  0.00     0.155 A 
ATOM   1090  N6    A A  45      18.344  -0.164 -27.409  1.00  0.00    -0.382 N 
ATOM   1091  H61   A A  45      18.486  -0.555 -26.488  1.00  0.00     0.157 HD
ATOM   1092  H62   A A  45      17.597   0.494 -27.573  1.00  0.00     0.157 HD
ATOM   1093  C5    A A  45      20.209  -1.440 -28.262  1.00  0.00     0.149 A 
ATOM   1094  N7    A A  45      20.685  -2.152 -27.170  1.00  0.00    -0.236 NA
ATOM   1095  C8    A A  45      21.694  -2.835 -27.656  1.00  0.00     0.214 A 
ATOM   1096  C2'   A A  45      24.236  -2.401 -29.905  1.00  0.00     0.199 C 
ATOM   1097  O2'   A A  45      24.824  -2.579 -31.180  1.00  0.00    -0.388 OA
ATOM   1098 'HO2   A A  45      25.735  -2.832 -31.028  1.00  0.00     0.210 HD
ATOM   1099  C3'   A A  45      25.066  -3.072 -28.817  1.00  0.00     0.198 C 
ATOM   1100  O3'   A A  45      26.467  -2.912 -29.032  1.00  0.00    -0.279 OA
ATOM   1101  P     G A  46      27.324  -1.962 -28.057  1.00  0.00     0.408 P 
ATOM   1102  OP1   G A  46      28.730  -1.997 -28.537  1.00  0.00    -0.624 OA
ATOM   1103  OP2   G A  46      27.022  -2.339 -26.653  1.00  0.00    -0.624 OA
ATOM   1104  O5'   G A  46      26.742  -0.504 -28.326  1.00  0.00    -0.287 OA
ATOM   1105  C5'   G A  46      26.751   0.064 -29.635  1.00  0.00     0.216 C 
ATOM   1106  C4'   G A  46      25.894   1.308 -29.670  1.00  0.00     0.180 C 
ATOM   1107  O4'   G A  46      24.535   0.951 -29.298  1.00  0.00    -0.353 OA
ATOM   1108  C1'   G A  46      23.975   1.974 -28.494  1.00  0.00     0.262 C 
ATOM   1109  N9    G A  46      23.666   1.410 -27.183  1.00  0.00    -0.293 N 
ATOM   1110  C4    G A  46      22.525   1.624 -26.448  1.00  0.00     0.187 A 
ATOM   1111  N3    G A  46      21.479   2.396 -26.812  1.00  0.00    -0.044 NA
ATOM   1112  C2    G A  46      20.531   2.407 -25.893  1.00  0.00     0.703 A 
ATOM   1113  N2    G A  46      19.423   3.125 -26.091  1.00  0.00    -0.233 N 
ATOM   1114  H21   G A  46      19.325   3.654 -26.946  1.00  0.00     0.174 HD
ATOM   1115  H22   G A  46      18.693   3.143 -25.395  1.00  0.00     0.174 HD
ATOM   1116  N1    G A  46      20.600   1.716 -24.710  1.00  0.00    -0.153 N 
ATOM   1117  H1    G A  46      19.819   1.789 -24.076  1.00  0.00     0.187 HD
ATOM   1118  C6    G A  46      21.664   0.916 -24.313  1.00  0.00     0.292 A 
ATOM   1119  O6    G A  46      21.624   0.339 -23.220  1.00  0.00    -0.265 OA
ATOM   1120  C5    G A  46      22.692   0.893 -25.291  1.00  0.00     0.173 A 
ATOM   1121  N7    G A  46      23.913   0.229 -25.299  1.00  0.00    -0.234 NA
ATOM   1122  C8    G A  46      24.452   0.566 -26.438  1.00  0.00     0.214 A 
ATOM   1123  C2'   G A  46      24.974   3.130 -28.446  1.00  0.00     0.199 C 
ATOM   1124  O2'   G A  46      24.684   4.024 -29.503  1.00  0.00    -0.388 OA
ATOM   1125 'HO2   G A  46      25.526   4.295 -29.868  1.00  0.00     0.210 HD
ATOM   1126  C3'   G A  46      26.291   2.402 -28.687  1.00  0.00     0.198 C 
ATOM   1127  O3'   G A  46      27.289   3.259 -29.240  1.00  0.00    -0.279 OA
ATOM   1128  P     G A  47      28.660   3.516 -28.437  1.00  0.00     0.408 P 
ATOM   1129  OP1   G A  47      29.647   4.033 -29.420  1.00  0.00    -0.624 OA
ATOM   1130  OP2   G A  47      28.987   2.306 -27.641  1.00  0.00    -0.624 OA
ATOM   1131  O5'   G A  47      28.305   4.700 -27.430  1.00  0.00    -0.287 OA
ATOM   1132  C5'   G A  47      27.634   5.877 -27.884  1.00  0.00     0.216 C 
ATOM   1133  C4'   G A  47      26.874   6.516 -26.745  1.00  0.00     0.180 C 
ATOM   1134  O4'   G A  47      26.096   5.486 -26.072  1.00  0.00    -0.353 OA
ATOM   1135  C1'   G A  47      26.542   5.345 -24.738  1.00  0.00     0.262 C 
ATOM   1136  N9    G A  47      26.558   3.923 -24.406  1.00  0.00    -0.293 N 
ATOM   1137  C4    G A  47      25.642   3.252 -23.634  1.00  0.00     0.187 A 
ATOM   1138  N3    G A  47      24.554   3.791 -23.044  1.00  0.00    -0.044 NA
ATOM   1139  C2    G A  47      23.865   2.892 -22.365  1.00  0.00     0.703 A 
ATOM   1140  N2    G A  47      22.755   3.257 -21.720  1.00  0.00    -0.233 N 
ATOM   1141  H21   G A  47      22.456   4.221 -21.759  1.00  0.00     0.174 HD
ATOM   1142  H22   G A  47      22.222   2.577 -21.198  1.00  0.00     0.174 HD
ATOM   1143  N1    G A  47      24.212   1.569 -22.269  1.00  0.00    -0.153 N 
ATOM   1144  H1    G A  47      23.619   0.960 -21.728  1.00  0.00     0.187 HD
ATOM   1145  C6    G A  47      25.327   0.991 -22.865  1.00  0.00     0.292 A 
ATOM   1146  O6    G A  47      25.550  -0.215 -22.709  1.00  0.00    -0.265 OA
ATOM   1147  C5    G A  47      26.079   1.943 -23.601  1.00  0.00     0.173 A 
ATOM   1148  N7    G A  47      27.245   1.796 -24.340  1.00  0.00    -0.234 NA
ATOM   1149  C8    G A  47      27.489   2.992 -24.798  1.00  0.00     0.214 A 
ATOM   1150  C2'   G A  47      27.909   6.019 -24.654  1.00  0.00     0.199 C 
ATOM   1151  O2'   G A  47      28.091   6.513 -23.339  1.00  0.00    -0.388 OA
ATOM   1152 'HO2   G A  47      27.899   7.451 -23.361  1.00  0.00     0.210 HD
ATOM   1153  C3'   G A  47      27.737   7.152 -25.659  1.00  0.00     0.198 C 
ATOM   1154  O3'   G A  47      27.099   8.295 -25.091  1.00  0.00    -0.279 OA
ATOM   1155  P     U A  48      27.974   9.580 -24.681  1.00  0.00     0.408 P 
ATOM   1156  OP1   U A  48      28.856   9.916 -25.827  1.00  0.00    -0.624 OA
ATOM   1157  OP2   U A  48      28.571   9.321 -23.346  1.00  0.00    -0.624 OA
ATOM   1158  O5'   U A  48      26.897  10.744 -24.520  1.00  0.00    -0.287 OA
ATOM   1159  C5'   U A  48      26.316  11.373 -25.662  1.00  0.00     0.216 C 
ATOM   1160  C4'   U A  48      25.451  12.535 -25.231  1.00  0.00     0.180 C 
ATOM   1161  O4'   U A  48      24.161  12.015 -24.802  1.00  0.00    -0.353 OA
ATOM   1162  C1'   U A  48      23.826  12.549 -23.537  1.00  0.00     0.264 C 
ATOM   1163  N1    U A  48      24.003  11.496 -22.526  1.00  0.00    -0.280 N 
ATOM   1164  C6    U A  48      24.561  10.280 -22.853  1.00  0.00     0.104 A 
ATOM   1165  C2    U A  48      23.593  11.766 -21.233  1.00  0.00     0.331 A 
ATOM   1166  O2    U A  48      23.088  12.825 -20.906  1.00  0.00    -0.246 OA
ATOM   1167  N3    U A  48      23.795  10.748 -20.337  1.00  0.00    -0.275 N 
ATOM   1168  H3    U A  48      23.510  10.929 -19.386  1.00  0.00     0.173 HD
ATOM   1169  C4    U A  48      24.348   9.515 -20.594  1.00  0.00     0.250 A 
ATOM   1170  O4    U A  48      24.471   8.705 -19.675  1.00  0.00    -0.268 OA
ATOM   1171  C5    U A  48      24.740   9.310 -21.952  1.00  0.00     0.092 A 
ATOM   1172  C2'   U A  48      24.715  13.772 -23.326  1.00  0.00     0.199 C 
ATOM   1173  O2'   U A  48      24.121  14.885 -23.967  1.00  0.00    -0.388 OA
ATOM   1174 'HO2   U A  48      24.781  15.240 -24.563  1.00  0.00     0.210 HD
ATOM   1175  C3'   U A  48      25.985  13.336 -24.048  1.00  0.00     0.198 C 
ATOM   1176  O3'   U A  48      26.765  14.445 -24.486  1.00  0.00    -0.279 OA
ATOM   1177  P     C A  49      28.156  14.784 -23.753  1.00  0.00     0.408 P 
ATOM   1178  OP1   C A  49      28.805  15.866 -24.537  1.00  0.00    -0.624 OA
ATOM   1179  OP2   C A  49      28.886  13.512 -23.513  1.00  0.00    -0.624 OA
ATOM   1180  O5'   C A  49      27.711  15.394 -22.349  1.00  0.00    -0.287 OA
ATOM   1181  C5'   C A  49      28.133  14.807 -21.119  1.00  0.00     0.216 C 
ATOM   1182  C4'   C A  49      27.015  14.866 -20.105  1.00  0.00     0.180 C 
ATOM   1183  O4'   C A  49      26.100  13.761 -20.353  1.00  0.00    -0.353 OA
ATOM   1184  C1'   C A  49      25.756  13.139 -19.126  1.00  0.00     0.264 C 
ATOM   1185  N1    C A  49      26.386  11.807 -19.091  1.00  0.00    -0.278 N 
ATOM   1186  C6    C A  49      27.138  11.358 -20.140  1.00  0.00     0.102 A 
ATOM   1187  C2    C A  49      26.205  11.004 -17.959  1.00  0.00     0.352 A 
ATOM   1188  O2    C A  49      25.517  11.433 -17.023  1.00  0.00    -0.244 OA
ATOM   1189  N3    C A  49      26.787   9.784 -17.914  1.00  0.00    -0.177 NA
ATOM   1190  C4    C A  49      27.521   9.358 -18.943  1.00  0.00     0.128 A 
ATOM   1191  N4    C A  49      28.074   8.149 -18.853  1.00  0.00    -0.384 N 
ATOM   1192  H41   C A  49      28.636   7.789 -19.610  1.00  0.00     0.157 HD
ATOM   1193  H42   C A  49      27.929   7.592 -18.023  1.00  0.00     0.157 HD
ATOM   1194  C5    C A  49      27.722  10.153 -20.109  1.00  0.00     0.067 A 
ATOM   1195  C2'   C A  49      26.217  14.074 -18.012  1.00  0.00     0.199 C 
ATOM   1196  O2'   C A  49      25.211  15.042 -17.780  1.00  0.00    -0.388 OA
ATOM   1197 'HO2   C A  49      25.634  15.899 -17.839  1.00  0.00     0.210 HD
ATOM   1198  C3'   C A  49      27.448  14.700 -18.654  1.00  0.00     0.198 C 
ATOM   1199  O3'   C A  49      27.796  15.952 -18.068  1.00  0.00    -0.279 OA
ATOM   1200  P     C A  50      29.208  16.118 -17.314  1.00  0.00     0.408 P 
ATOM   1201  OP1   C A  50      29.471  17.572 -17.176  1.00  0.00    -0.624 OA
ATOM   1202  OP2   C A  50      30.208  15.252 -17.989  1.00  0.00    -0.624 OA
ATOM   1203  O5'   C A  50      28.942  15.521 -15.862  1.00  0.00    -0.287 OA
ATOM   1204  C5'   C A  50      27.882  16.018 -15.046  1.00  0.00     0.216 C 
ATOM   1205  C4'   C A  50      27.646  15.088 -13.879  1.00  0.00     0.180 C 
ATOM   1206  O4'   C A  50      27.035  13.863 -14.371  1.00  0.00    -0.353 OA
ATOM   1207  C1'   C A  50      27.643  12.742 -13.753  1.00  0.00     0.264 C 
ATOM   1208  N1    C A  50      28.408  12.006 -14.773  1.00  0.00    -0.278 N 
ATOM   1209  C6    C A  50      28.684  12.574 -15.986  1.00  0.00     0.102 A 
ATOM   1210  C2    C A  50      28.850  10.713 -14.483  1.00  0.00     0.352 A 
ATOM   1211  O2    C A  50      28.593  10.223 -13.375  1.00  0.00    -0.244 OA
ATOM   1212  N3    C A  50      29.549  10.029 -15.417  1.00  0.00    -0.177 NA
ATOM   1213  C4    C A  50      29.810  10.590 -16.598  1.00  0.00     0.128 A 
ATOM   1214  N4    C A  50      30.499   9.877 -17.487  1.00  0.00    -0.384 N 
ATOM   1215  H41   C A  50      30.718  10.264 -18.393  1.00  0.00     0.157 HD
ATOM   1216  H42   C A  50      30.800   8.942 -17.250  1.00  0.00     0.157 HD
ATOM   1217  C5    C A  50      29.376  11.908 -16.920  1.00  0.00     0.067 A 
ATOM   1218  C2'   C A  50      28.496  13.272 -12.602  1.00  0.00     0.199 C 
ATOM   1219  O2'   C A  50      27.681  13.402 -11.453  1.00  0.00    -0.388 OA
ATOM   1220 'HO2   C A  50      27.796  14.297 -11.131  1.00  0.00     0.210 HD
ATOM   1221  C3'   C A  50      28.903  14.635 -13.148  1.00  0.00     0.198 C 
ATOM   1222  O3'   C A  50      29.265  15.551 -12.119  1.00  0.00    -0.279 OA
ATOM   1223  P     C A  51      30.817  15.848 -11.820  1.00  0.00     0.408 P 
ATOM   1224  OP1   C A  51      30.879  17.051 -10.953  1.00  0.00    -0.624 OA
ATOM   1225  OP2   C A  51      31.563  15.831 -13.105  1.00  0.00    -0.624 OA
ATOM   1226  O5'   C A  51      31.288  14.594 -10.959  1.00  0.00    -0.287 OA
ATOM   1227  C5'   C A  51      30.699  14.311  -9.691  1.00  0.00     0.216 C 
ATOM   1228  C4'   C A  51      31.307  13.060  -9.101  1.00  0.00     0.180 C 
ATOM   1229  O4'   C A  51      30.851  11.913  -9.871  1.00  0.00    -0.353 OA
ATOM   1230  C1'   C A  51      31.930  11.023 -10.091  1.00  0.00     0.264 C 
ATOM   1231  N1    C A  51      32.247  11.018 -11.529  1.00  0.00    -0.278 N 
ATOM   1232  C6    C A  51      31.962  12.101 -12.313  1.00  0.00     0.102 A 
ATOM   1233  C2    C A  51      32.849   9.887 -12.083  1.00  0.00     0.352 A 
ATOM   1234  O2    C A  51      33.093   8.917 -11.351  1.00  0.00    -0.244 OA
ATOM   1235  N3    C A  51      33.150   9.875 -13.400  1.00  0.00    -0.177 NA
ATOM   1236  C4    C A  51      32.870  10.937 -14.157  1.00  0.00     0.128 A 
ATOM   1237  N4    C A  51      33.189  10.880 -15.449  1.00  0.00    -0.384 N 
ATOM   1238  H41   C A  51      32.996  11.663 -16.057  1.00  0.00     0.157 HD
ATOM   1239  H42   C A  51      33.629  10.049 -15.818  1.00  0.00     0.157 HD
ATOM   1240  C5    C A  51      32.252  12.104 -13.621  1.00  0.00     0.067 A 
ATOM   1241  C2'   C A  51      33.090  11.488  -9.210  1.00  0.00     0.199 C 
ATOM   1242  O2'   C A  51      32.959  10.898  -7.931  1.00  0.00    -0.388 OA
ATOM   1243 'HO2   C A  51      33.074  11.602  -7.293  1.00  0.00     0.210 HD
ATOM   1244  C3'   C A  51      32.828  12.988  -9.152  1.00  0.00     0.198 C 
ATOM   1245  O3'   C A  51      33.418  13.595  -8.005  1.00  0.00    -0.279 OA
ATOM   1246  P     A A  52      34.934  14.130  -8.075  1.00  0.00     0.408 P 
ATOM   1247  OP1   A A  52      35.216  14.822  -6.791  1.00  0.00    -0.624 OA
ATOM   1248  OP2   A A  52      35.116  14.858  -9.356  1.00  0.00    -0.624 OA
ATOM   1249  O5'   A A  52      35.810  12.800  -8.131  1.00  0.00    -0.287 OA
ATOM   1250  C5'   A A  52      35.979  11.976  -6.977  1.00  0.00     0.216 C 
ATOM   1251  C4'   A A  52      37.215  11.120  -7.124  1.00  0.00     0.180 C 
ATOM   1252  O4'   A A  52      36.926  10.049  -8.064  1.00  0.00    -0.353 OA
ATOM   1253  C1'   A A  52      38.029   9.855  -8.926  1.00  0.00     0.262 C 
ATOM   1254  N9    A A  52      37.615  10.194 -10.287  1.00  0.00    -0.294 N 
ATOM   1255  C4    A A  52      37.940   9.500 -11.426  1.00  0.00     0.167 A 
ATOM   1256  N3    A A  52      38.690   8.388 -11.516  1.00  0.00    -0.222 NA
ATOM   1257  C2    A A  52      38.796   7.997 -12.782  1.00  0.00     0.237 A 
ATOM   1258  N1    A A  52      38.274   8.548 -13.885  1.00  0.00    -0.222 NA
ATOM   1259  C6    A A  52      37.524   9.663 -13.760  1.00  0.00     0.155 A 
ATOM   1260  N6    A A  52      37.006  10.207 -14.862  1.00  0.00    -0.382 N 
ATOM   1261  H61   A A  52      36.442  11.041 -14.793  1.00  0.00     0.157 HD
ATOM   1262  H62   A A  52      37.180   9.786 -15.764  1.00  0.00     0.157 HD
ATOM   1263  C5    A A  52      37.337  10.182 -12.468  1.00  0.00     0.149 A 
ATOM   1264  N7    A A  52      36.641  11.286 -11.994  1.00  0.00    -0.236 NA
ATOM   1265  C8    A A  52      36.837  11.249 -10.698  1.00  0.00     0.214 A 
ATOM   1266  C2'   A A  52      39.185  10.709  -8.405  1.00  0.00     0.199 C 
ATOM   1267  O2'   A A  52      39.941   9.934  -7.492  1.00  0.00    -0.388 OA
ATOM   1268 'HO2   A A  52      40.859  10.173  -7.628  1.00  0.00     0.210 HD
ATOM   1269  C3'   A A  52      38.434  11.832  -7.698  1.00  0.00     0.198 C 
ATOM   1270  O3'   A A  52      39.212  12.442  -6.671  1.00  0.00    -0.279 OA
ATOM   1271  P     G A  53      40.498  13.325  -7.060  1.00  0.00     0.408 P 
ATOM   1272  OP1   G A  53      41.071  13.857  -5.796  1.00  0.00    -0.624 OA
ATOM   1273  OP2   G A  53      40.107  14.268  -8.140  1.00  0.00    -0.624 OA
ATOM   1274  O5'   G A  53      41.529  12.268  -7.660  1.00  0.00    -0.287 OA
ATOM   1275  C5'   G A  53      42.332  12.584  -8.797  1.00  0.00     0.216 C 
ATOM   1276  C4'   G A  53      42.929  11.323  -9.379  1.00  0.00     0.180 C 
ATOM   1277  O4'   G A  53      41.866  10.536  -9.983  1.00  0.00    -0.353 OA
ATOM   1278  C1'   G A  53      42.322   9.967 -11.199  1.00  0.00     0.262 C 
ATOM   1279  N9    G A  53      41.541  10.535 -12.293  1.00  0.00    -0.293 N 
ATOM   1280  C4    G A  53      41.682  10.250 -13.630  1.00  0.00     0.187 A 
ATOM   1281  N3    G A  53      42.569   9.387 -14.168  1.00  0.00    -0.044 NA
ATOM   1282  C2    G A  53      42.464   9.329 -15.483  1.00  0.00     0.703 A 
ATOM   1283  N2    G A  53      43.269   8.522 -16.178  1.00  0.00    -0.233 N 
ATOM   1284  H21   G A  53      43.955   7.961 -15.692  1.00  0.00     0.174 HD
ATOM   1285  H22   G A  53      43.193   8.474 -17.185  1.00  0.00     0.174 HD
ATOM   1286  N1    G A  53      41.561  10.056 -16.214  1.00  0.00    -0.153 N 
ATOM   1287  H1    G A  53      41.566   9.935 -17.214  1.00  0.00     0.187 HD
ATOM   1288  C6    G A  53      40.638  10.950 -15.684  1.00  0.00     0.292 A 
ATOM   1289  O6    G A  53      39.868  11.557 -16.438  1.00  0.00    -0.265 OA
ATOM   1290  C5    G A  53      40.738  11.025 -14.270  1.00  0.00     0.173 A 
ATOM   1291  N7    G A  53      40.017  11.780 -13.356  1.00  0.00    -0.234 NA
ATOM   1292  C8    G A  53      40.527  11.456 -12.200  1.00  0.00     0.214 A 
ATOM   1293  C2'   G A  53      43.821  10.249 -11.303  1.00  0.00     0.199 C 
ATOM   1294  O2'   G A  53      44.527   9.193 -10.677  1.00  0.00    -0.388 OA
ATOM   1295 'HO2   G A  53      45.154   9.598 -10.076  1.00  0.00     0.210 HD
ATOM   1296  C3'   G A  53      43.935  11.539 -10.501  1.00  0.00     0.198 C 
ATOM   1297  O3'   G A  53      45.252  11.745  -9.992  1.00  0.00    -0.279 OA
ATOM   1298  P     A A  54      46.121  13.002 -10.495  1.00  0.00     0.408 P 
ATOM   1299  OP1   A A  54      47.062  13.344  -9.400  1.00  0.00    -0.624 OA
ATOM   1300  OP2   A A  54      45.199  14.042 -11.018  1.00  0.00    -0.624 OA
ATOM   1301  O5'   A A  54      46.974  12.420 -11.711  1.00  0.00    -0.287 OA
ATOM   1302  C5'   A A  54      47.168  13.176 -12.907  1.00  0.00     0.216 C 
ATOM   1303  C4'   A A  54      47.380  12.247 -14.078  1.00  0.00     0.180 C 
ATOM   1304  O4'   A A  54      46.130  11.558 -14.355  1.00  0.00    -0.353 OA
ATOM   1305  C1'   A A  54      45.910  11.502 -15.752  1.00  0.00     0.262 C 
ATOM   1306  N9    A A  54      44.735  12.315 -16.065  1.00  0.00    -0.294 N 
ATOM   1307  C4    A A  54      44.196  12.516 -17.314  1.00  0.00     0.167 A 
ATOM   1308  N3    A A  54      44.634  12.011 -18.481  1.00  0.00    -0.222 NA
ATOM   1309  C2    A A  54      43.868  12.424 -19.487  1.00  0.00     0.237 A 
ATOM   1310  N1    A A  54      42.795  13.227 -19.463  1.00  0.00    -0.222 NA
ATOM   1311  C6    A A  54      42.380  13.715 -18.275  1.00  0.00     0.155 A 
ATOM   1312  N6    A A  54      41.311  14.512 -18.255  1.00  0.00    -0.382 N 
ATOM   1313  H61   A A  54      40.983  14.888 -17.376  1.00  0.00     0.157 HD
ATOM   1314  H62   A A  54      40.831  14.740 -19.114  1.00  0.00     0.157 HD
ATOM   1315  C5    A A  54      43.109  13.351 -17.127  1.00  0.00     0.149 A 
ATOM   1316  N7    A A  54      42.962  13.669 -15.783  1.00  0.00    -0.236 NA
ATOM   1317  C8    A A  54      43.946  13.032 -15.198  1.00  0.00     0.214 A 
ATOM   1318  C2'   A A  54      47.191  11.979 -16.437  1.00  0.00     0.199 C 
ATOM   1319  O2'   A A  54      48.043  10.866 -16.633  1.00  0.00    -0.388 OA
ATOM   1320 'HO2   A A  54      48.909  11.126 -16.318  1.00  0.00     0.210 HD
ATOM   1321  C3'   A A  54      47.757  12.929 -15.388  1.00  0.00     0.198 C 
ATOM   1322  O3'   A A  54      49.171  13.085 -15.508  1.00  0.00    -0.279 OA
ATOM   1323  P     U A  55      49.777  14.367 -16.270  1.00  0.00     0.408 P 
ATOM   1324  OP1   U A  55      51.124  14.621 -15.699  1.00  0.00    -0.624 OA
ATOM   1325  OP2   U A  55      48.763  15.454 -16.267  1.00  0.00    -0.624 OA
ATOM   1326  O5'   U A  55      49.974  13.869 -17.772  1.00  0.00    -0.287 OA
ATOM   1327  C5'   U A  55      48.881  13.838 -18.689  1.00  0.00     0.216 C 
ATOM   1328  C4'   U A  55      49.140  14.774 -19.847  1.00  0.00     0.180 C 
ATOM   1329  O4'   U A  55      47.873  15.066 -20.498  1.00  0.00    -0.353 OA
ATOM   1330  C1'   U A  55      47.809  16.441 -20.832  1.00  0.00     0.264 C 
ATOM   1331  N1    U A  55      46.754  17.066 -20.021  1.00  0.00    -0.280 N 
ATOM   1332  C6    U A  55      46.529  16.676 -18.720  1.00  0.00     0.104 A 
ATOM   1333  C2    U A  55      45.992  18.060 -20.608  1.00  0.00     0.331 A 
ATOM   1334  O2    U A  55      46.156  18.429 -21.756  1.00  0.00    -0.246 OA
ATOM   1335  N3    U A  55      45.029  18.606 -19.799  1.00  0.00    -0.275 N 
ATOM   1336  H3    U A  55      44.474  19.347 -20.200  1.00  0.00     0.173 HD
ATOM   1337  C4    U A  55      44.750  18.263 -18.495  1.00  0.00     0.250 A 
ATOM   1338  O4    U A  55      43.840  18.838 -17.900  1.00  0.00    -0.268 OA
ATOM   1339  C5    U A  55      45.578  17.228 -17.963  1.00  0.00     0.092 A 
ATOM   1340  C2'   U A  55      49.197  17.032 -20.597  1.00  0.00     0.199 C 
ATOM   1341  O2'   U A  55      49.961  16.875 -21.778  1.00  0.00    -0.388 OA
ATOM   1342 'HO2   U A  55      50.842  16.619 -21.506  1.00  0.00     0.210 HD
ATOM   1343  C3'   U A  55      49.715  16.137 -19.477  1.00  0.00     0.198 C 
ATOM   1344  O3'   U A  55      51.139  16.112 -19.423  1.00  0.00    -0.279 OA
ATOM   1345  P     U A  56      51.932  17.293 -18.671  1.00  0.00     0.408 P 
ATOM   1346  OP1   U A  56      53.350  16.868 -18.551  1.00  0.00    -0.624 OA
ATOM   1347  OP2   U A  56      51.168  17.657 -17.449  1.00  0.00    -0.624 OA
ATOM   1348  O5'   U A  56      51.867  18.514 -19.694  1.00  0.00    -0.287 OA
ATOM   1349  C5'   U A  56      51.809  19.866 -19.233  1.00  0.00     0.216 C 
ATOM   1350  C4'   U A  56      50.870  20.673 -20.102  1.00  0.00     0.180 C 
ATOM   1351  O4'   U A  56      49.600  19.970 -20.193  1.00  0.00    -0.353 OA
ATOM   1352  C1'   U A  56      48.530  20.891 -20.081  1.00  0.00     0.264 C 
ATOM   1353  N1    U A  56      47.811  20.616 -18.828  1.00  0.00    -0.280 N 
ATOM   1354  C6    U A  56      48.351  19.802 -17.858  1.00  0.00     0.104 A 
ATOM   1355  C2    U A  56      46.574  21.207 -18.655  1.00  0.00     0.331 A 
ATOM   1356  O2    U A  56      46.059  21.926 -19.492  1.00  0.00    -0.246 OA
ATOM   1357  N3    U A  56      45.959  20.924 -17.463  1.00  0.00    -0.275 N 
ATOM   1358  H3    U A  56      45.060  21.351 -17.308  1.00  0.00     0.173 HD
ATOM   1359  C4    U A  56      46.440  20.125 -16.452  1.00  0.00     0.250 A 
ATOM   1360  O4    U A  56      45.763  19.962 -15.438  1.00  0.00    -0.268 OA
ATOM   1361  C5    U A  56      47.721  19.547 -16.709  1.00  0.00     0.092 A 
ATOM   1362  C2'   U A  56      49.127  22.296 -20.149  1.00  0.00     0.199 C 
ATOM   1363  O2'   U A  56      49.201  22.693 -21.506  1.00  0.00    -0.388 OA
ATOM   1364 'HO2   U A  56      50.117  22.607 -21.771  1.00  0.00     0.210 HD
ATOM   1365  C3'   U A  56      50.515  22.056 -19.568  1.00  0.00     0.198 C 
ATOM   1366  O3'   U A  56      51.452  23.041 -19.997  1.00  0.00    -0.279 OA
ATOM   1367  P     C A  57      51.868  24.238 -19.005  1.00  0.00     0.408 P 
ATOM   1368  OP1   C A  57      52.441  25.323 -19.841  1.00  0.00    -0.624 OA
ATOM   1369  OP2   C A  57      52.674  23.661 -17.898  1.00  0.00    -0.624 OA
ATOM   1370  O5'   C A  57      50.482  24.752 -18.406  1.00  0.00    -0.287 OA
ATOM   1371  C5'   C A  57      50.387  25.214 -17.058  1.00  0.00     0.216 C 
ATOM   1372  C4'   C A  57      49.512  26.445 -16.986  1.00  0.00     0.180 C 
ATOM   1373  O4'   C A  57      50.071  27.469 -17.856  1.00  0.00    -0.353 OA
ATOM   1374  C1'   C A  57      49.029  28.130 -18.551  1.00  0.00     0.264 C 
ATOM   1375  N1    C A  57      49.165  27.828 -19.985  1.00  0.00    -0.278 N 
ATOM   1376  C6    C A  57      49.535  26.581 -20.406  1.00  0.00     0.102 A 
ATOM   1377  C2    C A  57      48.906  28.838 -20.916  1.00  0.00     0.352 A 
ATOM   1378  O2    C A  57      48.575  29.961 -20.508  1.00  0.00    -0.244 OA
ATOM   1379  N3    C A  57      49.025  28.567 -22.235  1.00  0.00    -0.177 NA
ATOM   1380  C4    C A  57      49.385  27.346 -22.634  1.00  0.00     0.128 A 
ATOM   1381  N4    C A  57      49.485  27.125 -23.944  1.00  0.00    -0.384 N 
ATOM   1382  H41   C A  57      49.755  26.211 -24.281  1.00  0.00     0.157 HD
ATOM   1383  H42   C A  57      49.291  27.872 -24.592  1.00  0.00     0.157 HD
ATOM   1384  C5    C A  57      49.658  26.299 -21.708  1.00  0.00     0.067 A 
ATOM   1385  C2'   C A  57      47.706  27.660 -17.948  1.00  0.00     0.199 C 
ATOM   1386  O2'   C A  57      47.377  28.500 -16.857  1.00  0.00    -0.388 OA
ATOM   1387 'HO2   C A  57      47.026  27.934 -16.170  1.00  0.00     0.210 HD
ATOM   1388  C3'   C A  57      48.079  26.262 -17.471  1.00  0.00     0.198 C 
ATOM   1389  O3'   C A  57      47.226  25.804 -16.425  1.00  0.00    -0.279 OA
ATOM   1390  P     G A  58      46.571  24.336 -16.508  1.00  0.00     0.408 P 
ATOM   1391  OP1   G A  58      46.106  23.985 -15.143  1.00  0.00    -0.624 OA
ATOM   1392  OP2   G A  58      47.521  23.437 -17.212  1.00  0.00    -0.624 OA
ATOM   1393  O5'   G A  58      45.288  24.536 -17.433  1.00  0.00    -0.287 OA
ATOM   1394  C5'   G A  58      44.156  25.274 -16.970  1.00  0.00     0.216 C 
ATOM   1395  C4'   G A  58      43.169  25.479 -18.096  1.00  0.00     0.180 C 
ATOM   1396  O4'   G A  58      43.729  26.440 -19.033  1.00  0.00    -0.353 OA
ATOM   1397  C1'   G A  58      43.517  25.995 -20.361  1.00  0.00     0.262 C 
ATOM   1398  N9    G A  58      44.812  25.653 -20.943  1.00  0.00    -0.293 N 
ATOM   1399  C4    G A  58      45.066  25.365 -22.262  1.00  0.00     0.187 A 
ATOM   1400  N3    G A  58      44.157  25.346 -23.259  1.00  0.00    -0.044 NA
ATOM   1401  C2    G A  58      44.705  25.032 -24.420  1.00  0.00     0.703 A 
ATOM   1402  N2    G A  58      43.943  24.966 -25.515  1.00  0.00    -0.233 N 
ATOM   1403  H21   G A  58      42.955  25.157 -25.439  1.00  0.00     0.174 HD
ATOM   1404  H22   G A  58      44.348  24.727 -26.406  1.00  0.00     0.174 HD
ATOM   1405  N1    G A  58      46.037  24.762 -24.592  1.00  0.00    -0.153 N 
ATOM   1406  H1    G A  58      46.355  24.533 -25.520  1.00  0.00     0.187 HD
ATOM   1407  C6    G A  58      46.993  24.778 -23.582  1.00  0.00     0.292 A 
ATOM   1408  O6    G A  58      48.173  24.521 -23.850  1.00  0.00    -0.265 OA
ATOM   1409  C5    G A  58      46.420  25.109 -22.326  1.00  0.00     0.173 A 
ATOM   1410  N7    G A  58      47.005  25.233 -21.074  1.00  0.00    -0.234 NA
ATOM   1411  C8    G A  58      46.014  25.554 -20.288  1.00  0.00     0.214 A 
ATOM   1412  C2'   G A  58      42.541  24.823 -20.300  1.00  0.00     0.199 C 
ATOM   1413  O2'   G A  58      41.220  25.327 -20.347  1.00  0.00    -0.388 OA
ATOM   1414 'HO2   G A  58      40.680  24.724 -19.833  1.00  0.00     0.210 HD
ATOM   1415  C3'   G A  58      42.860  24.241 -18.929  1.00  0.00     0.198 C 
ATOM   1416  O3'   G A  58      41.763  23.506 -18.390  1.00  0.00    -0.279 OA
ATOM   1417  P     A A  59      42.035  22.158 -17.557  1.00  0.00     0.408 P 
ATOM   1418  OP1   A A  59      42.243  22.546 -16.139  1.00  0.00    -0.624 OA
ATOM   1419  OP2   A A  59      43.081  21.380 -18.267  1.00  0.00    -0.624 OA
ATOM   1420  O5'   A A  59      40.663  21.351 -17.657  1.00  0.00    -0.287 OA
ATOM   1421  C5'   A A  59      39.404  22.022 -17.600  1.00  0.00     0.216 C 
ATOM   1422  C4'   A A  59      38.579  21.685 -18.820  1.00  0.00     0.180 C 
ATOM   1423  O4'   A A  59      39.414  21.807 -20.006  1.00  0.00    -0.353 OA
ATOM   1424  C1'   A A  59      39.092  20.779 -20.927  1.00  0.00     0.262 C 
ATOM   1425  N9    A A  59      40.262  19.915 -21.088  1.00  0.00    -0.294 N 
ATOM   1426  C4    A A  59      40.652  19.292 -22.249  1.00  0.00     0.167 A 
ATOM   1427  N3    A A  59      40.047  19.349 -23.447  1.00  0.00    -0.222 NA
ATOM   1428  C2    A A  59      40.708  18.620 -24.343  1.00  0.00     0.237 A 
ATOM   1429  N1    A A  59      41.822  17.893 -24.187  1.00  0.00    -0.222 NA
ATOM   1430  C6    A A  59      42.406  17.859 -22.971  1.00  0.00     0.155 A 
ATOM   1431  N6    A A  59      43.517  17.137 -22.820  1.00  0.00    -0.382 N 
ATOM   1432  H61   A A  59      43.973  17.096 -21.921  1.00  0.00     0.157 HD
ATOM   1433  H62   A A  59      43.901  16.638 -23.609  1.00  0.00     0.157 HD
ATOM   1434  C5    A A  59      41.800  18.591 -21.934  1.00  0.00     0.149 A 
ATOM   1435  N7    A A  59      42.131  18.765 -20.596  1.00  0.00    -0.236 NA
ATOM   1436  C8    A A  59      41.189  19.556 -20.141  1.00  0.00     0.214 A 
ATOM   1437  C2'   A A  59      37.857  20.060 -20.385  1.00  0.00     0.199 C 
ATOM   1438  O2'   A A  59      36.739  20.746 -20.910  1.00  0.00    -0.388 OA
ATOM   1439 'HO2   A A  59      36.773  21.639 -20.564  1.00  0.00     0.210 HD
ATOM   1440  C3'   A A  59      38.056  20.256 -18.884  1.00  0.00     0.198 C 
ATOM   1441  O3'   A A  59      36.890  20.060 -18.063  1.00  0.00    -0.279 OA
ATOM   1442  P     G A  60      35.453  20.648 -18.503  1.00  0.00     0.408 P 
ATOM   1443  OP1   G A  60      35.643  21.978 -19.136  1.00  0.00    -0.624 OA
ATOM   1444  OP2   G A  60      34.556  20.527 -17.326  1.00  0.00    -0.624 OA
ATOM   1445  O5'   G A  60      34.933  19.620 -19.606  1.00  0.00    -0.287 OA
ATOM   1446  C5'   G A  60      33.901  19.982 -20.520  1.00  0.00     0.216 C 
ATOM   1447  C4'   G A  60      33.321  18.745 -21.166  1.00  0.00     0.180 C 
ATOM   1448  O4'   G A  60      32.169  19.143 -21.956  1.00  0.00    -0.353 OA
ATOM   1449  C1'   G A  60      32.179  18.466 -23.198  1.00  0.00     0.262 C 
ATOM   1450  N9    G A  60      32.336  19.458 -24.257  1.00  0.00    -0.293 N 
ATOM   1451  C4    G A  60      33.301  20.435 -24.334  1.00  0.00     0.187 A 
ATOM   1452  N3    G A  60      34.285  20.649 -23.436  1.00  0.00    -0.044 NA
ATOM   1453  C2    G A  60      35.056  21.662 -23.784  1.00  0.00     0.703 A 
ATOM   1454  N2    G A  60      36.083  22.008 -23.006  1.00  0.00    -0.233 N 
ATOM   1455  H21   G A  60      36.252  21.483 -22.157  1.00  0.00     0.174 HD
ATOM   1456  H22   G A  60      36.687  22.774 -23.260  1.00  0.00     0.174 HD
ATOM   1457  N1    G A  60      34.880  22.409 -24.919  1.00  0.00    -0.153 N 
ATOM   1458  H1    G A  60      35.527  23.162 -25.088  1.00  0.00     0.187 HD
ATOM   1459  C6    G A  60      33.876  22.207 -25.859  1.00  0.00     0.292 A 
ATOM   1460  O6    G A  60      33.809  22.940 -26.852  1.00  0.00    -0.265 OA
ATOM   1461  C5    G A  60      33.037  21.120 -25.501  1.00  0.00     0.173 A 
ATOM   1462  N7    G A  60      31.929  20.586 -26.147  1.00  0.00    -0.234 NA
ATOM   1463  C8    G A  60      31.550  19.605 -25.374  1.00  0.00     0.214 A 
ATOM   1464  C2'   G A  60      33.291  17.419 -23.158  1.00  0.00     0.199 C 
ATOM   1465  O2'   G A  60      32.744  16.199 -22.693  1.00  0.00    -0.388 OA
ATOM   1466 'HO2   G A  60      33.140  16.031 -21.837  1.00  0.00     0.210 HD
ATOM   1467  C3'   G A  60      34.250  18.017 -22.131  1.00  0.00     0.198 C 
ATOM   1468  O3'   G A  60      35.006  17.016 -21.452  1.00  0.00    -0.279 OA
ATOM   1469  P     U A  61      36.258  16.319 -22.184  1.00  0.00     0.408 P 
ATOM   1470  OP1   U A  61      36.279  14.895 -21.756  1.00  0.00    -0.624 OA
ATOM   1471  OP2   U A  61      37.461  17.162 -21.975  1.00  0.00    -0.624 OA
ATOM   1472  O5'   U A  61      35.891  16.369 -23.734  1.00  0.00    -0.287 OA
ATOM   1473  C5'   U A  61      35.219  15.284 -24.373  1.00  0.00     0.216 C 
ATOM   1474  C4'   U A  61      35.153  15.521 -25.864  1.00  0.00     0.180 C 
ATOM   1475  O4'   U A  61      34.613  16.851 -26.102  1.00  0.00    -0.353 OA
ATOM   1476  C1'   U A  61      35.354  17.496 -27.122  1.00  0.00     0.264 C 
ATOM   1477  N1    U A  61      36.084  18.623 -26.525  1.00  0.00    -0.280 N 
ATOM   1478  C6    U A  61      36.533  18.576 -25.225  1.00  0.00     0.104 A 
ATOM   1479  C2    U A  61      36.308  19.736 -27.315  1.00  0.00     0.331 A 
ATOM   1480  O2    U A  61      35.925  19.819 -28.466  1.00  0.00    -0.246 OA
ATOM   1481  N3    U A  61      36.998  20.750 -26.703  1.00  0.00    -0.275 N 
ATOM   1482  H3    U A  61      37.174  21.569 -27.264  1.00  0.00     0.173 HD
ATOM   1483  C4    U A  61      37.477  20.768 -25.414  1.00  0.00     0.250 A 
ATOM   1484  O4    U A  61      38.075  21.764 -25.006  1.00  0.00    -0.268 OA
ATOM   1485  C5    U A  61      37.203  19.585 -24.662  1.00  0.00     0.092 A 
ATOM   1486  C2'   U A  61      36.261  16.445 -27.759  1.00  0.00     0.199 C 
ATOM   1487  O2'   U A  61      35.549  15.799 -28.798  1.00  0.00    -0.388 OA
ATOM   1488 'HO2   U A  61      35.481  14.875 -28.551  1.00  0.00     0.210 HD
ATOM   1489  C3'   U A  61      36.496  15.503 -26.584  1.00  0.00     0.198 C 
ATOM   1490  O3'   U A  61      36.843  14.189 -27.009  1.00  0.00    -0.279 OA
ATOM   1491  P     U A  62      37.952  13.350 -26.199  1.00  0.00     0.408 P 
ATOM   1492  OP1   U A  62      37.806  11.930 -26.607  1.00  0.00    -0.624 OA
ATOM   1493  OP2   U A  62      37.873  13.712 -24.761  1.00  0.00    -0.624 OA
ATOM   1494  O5'   U A  62      39.338  13.901 -26.762  1.00  0.00    -0.287 OA
ATOM   1495  C5'   U A  62      40.082  13.173 -27.740  1.00  0.00     0.216 C 
ATOM   1496  C4'   U A  62      41.235  12.446 -27.085  1.00  0.00     0.180 C 
ATOM   1497  O4'   U A  62      42.067  13.414 -26.383  1.00  0.00    -0.353 OA
ATOM   1498  C1'   U A  62      42.510  12.860 -25.155  1.00  0.00     0.264 C 
ATOM   1499  N1    U A  62      41.899  13.615 -24.050  1.00  0.00    -0.280 N 
ATOM   1500  C6    U A  62      40.895  14.530 -24.272  1.00  0.00     0.104 A 
ATOM   1501  C2    U A  62      42.365  13.364 -22.773  1.00  0.00     0.331 A 
ATOM   1502  O2    U A  62      43.256  12.571 -22.537  1.00  0.00    -0.246 OA
ATOM   1503  N3    U A  62      41.746  14.077 -21.781  1.00  0.00    -0.275 N 
ATOM   1504  H3    U A  62      42.072  13.904 -20.841  1.00  0.00     0.173 HD
ATOM   1505  C4    U A  62      40.735  14.996 -21.927  1.00  0.00     0.250 A 
ATOM   1506  O4    U A  62      40.266  15.539 -20.926  1.00  0.00    -0.268 OA
ATOM   1507  C5    U A  62      40.314  15.208 -23.277  1.00  0.00     0.092 A 
ATOM   1508  C2'   U A  62      42.118  11.384 -25.161  1.00  0.00     0.199 C 
ATOM   1509  O2'   U A  62      43.143  10.642 -25.795  1.00  0.00    -0.388 OA
ATOM   1510 'HO2   U A  62      42.712  10.014 -26.375  1.00  0.00     0.210 HD
ATOM   1511  C3'   U A  62      40.859  11.430 -26.014  1.00  0.00     0.198 C 
ATOM   1512  O3'   U A  62      40.533  10.157 -26.565  1.00  0.00    -0.279 OA
ATOM   1513  P     C A  63      39.748   9.076 -25.668  1.00  0.00     0.408 P 
ATOM   1514  OP1   C A  63      39.469   7.899 -26.530  1.00  0.00    -0.624 OA
ATOM   1515  OP2   C A  63      38.628   9.760 -24.975  1.00  0.00    -0.624 OA
ATOM   1516  O5'   C A  63      40.813   8.644 -24.563  1.00  0.00    -0.287 OA
ATOM   1517  C5'   C A  63      41.798   7.648 -24.836  1.00  0.00     0.216 C 
ATOM   1518  C4'   C A  63      42.458   7.199 -23.553  1.00  0.00     0.180 C 
ATOM   1519  O4'   C A  63      42.911   8.367 -22.816  1.00  0.00    -0.353 OA
ATOM   1520  C1'   C A  63      42.744   8.150 -21.425  1.00  0.00     0.264 C 
ATOM   1521  N1    C A  63      41.814   9.165 -20.902  1.00  0.00    -0.278 N 
ATOM   1522  C6    C A  63      40.988   9.859 -21.741  1.00  0.00     0.102 A 
ATOM   1523  C2    C A  63      41.786   9.408 -19.527  1.00  0.00     0.352 A 
ATOM   1524  O2    C A  63      42.547   8.768 -18.786  1.00  0.00    -0.244 OA
ATOM   1525  N3    C A  63      40.932  10.333 -19.036  1.00  0.00    -0.177 NA
ATOM   1526  C4    C A  63      40.129  11.003 -19.863  1.00  0.00     0.128 A 
ATOM   1527  N4    C A  63      39.302  11.903 -19.332  1.00  0.00    -0.384 N 
ATOM   1528  H41   C A  63      38.677  12.431 -19.923  1.00  0.00     0.157 HD
ATOM   1529  H42   C A  63      39.301  12.049 -18.332  1.00  0.00     0.157 HD
ATOM   1530  C5    C A  63      40.137  10.779 -21.270  1.00  0.00     0.067 A 
ATOM   1531  C2'   C A  63      42.250   6.716 -21.237  1.00  0.00     0.199 C 
ATOM   1532  O2'   C A  63      43.373   5.869 -21.076  1.00  0.00    -0.388 OA
ATOM   1533 'HO2   C A  63      43.268   5.145 -21.692  1.00  0.00     0.210 HD
ATOM   1534  C3'   C A  63      41.555   6.465 -22.571  1.00  0.00     0.198 C 
ATOM   1535  O3'   C A  63      41.456   5.076 -22.879  1.00  0.00    -0.279 OA
ATOM   1536  P     U A  64      40.225   4.217 -22.304  1.00  0.00     0.408 P 
ATOM   1537  OP1   U A  64      40.349   2.841 -22.849  1.00  0.00    -0.624 OA
ATOM   1538  OP2   U A  64      38.973   4.984 -22.526  1.00  0.00    -0.624 OA
ATOM   1539  O5'   U A  64      40.496   4.158 -20.733  1.00  0.00    -0.287 OA
ATOM   1540  C5'   U A  64      41.599   3.424 -20.204  1.00  0.00     0.216 C 
ATOM   1541  C4'   U A  64      41.359   3.098 -18.748  1.00  0.00     0.180 C 
ATOM   1542  O4'   U A  64      41.686   4.264 -17.943  1.00  0.00    -0.353 OA
ATOM   1543  C1'   U A  64      40.754   4.388 -16.882  1.00  0.00     0.264 C 
ATOM   1544  N1    U A  64      39.988   5.628 -17.077  1.00  0.00    -0.280 N 
ATOM   1545  C6    U A  64      39.639   6.065 -18.337  1.00  0.00     0.104 A 
ATOM   1546  C2    U A  64      39.625   6.343 -15.952  1.00  0.00     0.331 A 
ATOM   1547  O2    U A  64      39.912   5.991 -14.822  1.00  0.00    -0.246 OA
ATOM   1548  N3    U A  64      38.910   7.486 -16.198  1.00  0.00    -0.275 N 
ATOM   1549  H3    U A  64      38.631   8.019 -15.388  1.00  0.00     0.173 HD
ATOM   1550  C4    U A  64      38.529   7.980 -17.422  1.00  0.00     0.250 A 
ATOM   1551  O4    U A  64      37.895   9.034 -17.477  1.00  0.00    -0.268 OA
ATOM   1552  C5    U A  64      38.940   7.187 -18.537  1.00  0.00     0.092 A 
ATOM   1553  C2'   U A  64      39.892   3.126 -16.892  1.00  0.00     0.199 C 
ATOM   1554  O2'   U A  64      40.532   2.131 -16.116  1.00  0.00    -0.388 OA
ATOM   1555 'HO2   U A  64      39.890   1.436 -15.974  1.00  0.00     0.210 HD
ATOM   1556  C3'   U A  64      39.918   2.778 -18.373  1.00  0.00     0.198 C 
ATOM   1557  O3'   U A  64      39.590   1.413 -18.622  1.00  0.00    -0.279 OA
ATOM   1558  P     G A  65      38.075   1.011 -18.983  1.00  0.00     0.408 P 
ATOM   1559  OP1   G A  65      38.062  -0.446 -19.269  1.00  0.00    -0.624 OA
ATOM   1560  OP2   G A  65      37.571   1.964 -20.007  1.00  0.00    -0.624 OA
ATOM   1561  O5'   G A  65      37.275   1.265 -17.628  1.00  0.00    -0.287 OA
ATOM   1562  C5'   G A  65      37.005   0.197 -16.720  1.00  0.00     0.216 C 
ATOM   1563  C4'   G A  65      36.864   0.728 -15.310  1.00  0.00     0.180 C 
ATOM   1564  O4'   G A  65      37.482   2.038 -15.219  1.00  0.00    -0.353 OA
ATOM   1565  C1'   G A  65      36.795   2.822 -14.259  1.00  0.00     0.262 C 
ATOM   1566  N9    G A  65      36.387   4.074 -14.893  1.00  0.00    -0.293 N 
ATOM   1567  C4    G A  65      35.713   5.110 -14.294  1.00  0.00     0.187 A 
ATOM   1568  N3    G A  65      35.297   5.149 -13.010  1.00  0.00    -0.044 NA
ATOM   1569  C2    G A  65      34.675   6.279 -12.728  1.00  0.00     0.703 A 
ATOM   1570  N2    G A  65      34.191   6.476 -11.499  1.00  0.00    -0.233 N 
ATOM   1571  H21   G A  65      34.310   5.753 -10.804  1.00  0.00     0.174 HD
ATOM   1572  H22   G A  65      33.707   7.333 -11.271  1.00  0.00     0.174 HD
ATOM   1573  N1    G A  65      34.479   7.294 -13.627  1.00  0.00    -0.153 N 
ATOM   1574  H1    G A  65      33.992   8.118 -13.307  1.00  0.00     0.187 HD
ATOM   1575  C6    G A  65      34.898   7.280 -14.953  1.00  0.00     0.292 A 
ATOM   1576  O6    G A  65      34.670   8.255 -15.681  1.00  0.00    -0.265 OA
ATOM   1577  C5    G A  65      35.566   6.068 -15.275  1.00  0.00     0.173 A 
ATOM   1578  N7    G A  65      36.134   5.643 -16.468  1.00  0.00    -0.234 NA
ATOM   1579  C8    G A  65      36.603   4.456 -16.195  1.00  0.00     0.214 A 
ATOM   1580  C2'   G A  65      35.625   1.991 -13.722  1.00  0.00     0.199 C 
ATOM   1581  O2'   G A  65      36.032   1.365 -12.520  1.00  0.00    -0.388 OA
ATOM   1582 'HO2   G A  65      35.714   0.463 -12.560  1.00  0.00     0.210 HD
ATOM   1583  C3'   G A  65      35.438   0.966 -14.835  1.00  0.00     0.198 C 
ATOM   1584  O3'   G A  65      34.839  -0.240 -14.367  1.00  0.00    -0.279 OA
ATOM   1585  P     G A  66      33.260  -0.479 -14.564  1.00  0.00     0.408 P 
ATOM   1586  OP1   G A  66      32.988  -1.902 -14.235  1.00  0.00    -0.624 OA
ATOM   1587  OP2   G A  66      32.857   0.057 -15.889  1.00  0.00    -0.624 OA
ATOM   1588  O5'   G A  66      32.585   0.419 -13.433  1.00  0.00    -0.287 OA
ATOM   1589  C5'   G A  66      32.962   0.286 -12.063  1.00  0.00     0.216 C 
ATOM   1590  C4'   G A  66      32.101   1.175 -11.197  1.00  0.00     0.180 C 
ATOM   1591  O4'   G A  66      32.186   2.539 -11.702  1.00  0.00    -0.353 OA
ATOM   1592  C1'   G A  66      30.899   2.994 -12.061  1.00  0.00     0.262 C 
ATOM   1593  N9    G A  66      31.023   3.841 -13.243  1.00  0.00    -0.293 N 
ATOM   1594  C4    G A  66      30.575   5.133 -13.368  1.00  0.00     0.187 A 
ATOM   1595  N3    G A  66      29.941   5.847 -12.414  1.00  0.00    -0.044 NA
ATOM   1596  C2    G A  66      29.636   7.062 -12.830  1.00  0.00     0.703 A 
ATOM   1597  N2    G A  66      29.011   7.907 -12.007  1.00  0.00    -0.233 N 
ATOM   1598  H21   G A  66      28.778   7.605 -11.072  1.00  0.00     0.174 HD
ATOM   1599  H22   G A  66      28.780   8.841 -12.316  1.00  0.00     0.174 HD
ATOM   1600  N1    G A  66      29.923   7.539 -14.083  1.00  0.00    -0.153 N 
ATOM   1601  H1    G A  66      29.641   8.482 -14.301  1.00  0.00     0.187 HD
ATOM   1602  C6    G A  66      30.574   6.823 -15.082  1.00  0.00     0.292 A 
ATOM   1603  O6    G A  66      30.783   7.351 -16.179  1.00  0.00    -0.265 OA
ATOM   1604  C5    G A  66      30.914   5.516 -14.648  1.00  0.00     0.173 A 
ATOM   1605  N7    G A  66      31.562   4.484 -15.316  1.00  0.00    -0.234 NA
ATOM   1606  C8    G A  66      31.604   3.515 -14.443  1.00  0.00     0.214 A 
ATOM   1607  C2'   G A  66      30.044   1.750 -12.265  1.00  0.00     0.199 C 
ATOM   1608  O2'   G A  66      28.693   2.077 -12.001  1.00  0.00    -0.388 OA
ATOM   1609 'HO2   G A  66      28.569   1.988 -11.055  1.00  0.00     0.210 HD
ATOM   1610  C3'   G A  66      30.613   0.831 -11.190  1.00  0.00     0.198 C 
ATOM   1611  O3'   G A  66      30.028   1.075  -9.912  1.00  0.00    -0.279 OA
ATOM   1612  P     C A  67      30.133  -0.041  -8.756  1.00  0.00     0.408 P 
ATOM   1613  OP1   C A  67      31.330  -0.876  -9.035  1.00  0.00    -0.624 OA
ATOM   1614  OP2   C A  67      28.803  -0.687  -8.622  1.00  0.00    -0.624 OA
ATOM   1615  O5'   C A  67      30.415   0.798  -7.431  1.00  0.00    -0.287 OA
ATOM   1616  C5'   C A  67      31.411   1.819  -7.400  1.00  0.00     0.216 C 
ATOM   1617  C4'   C A  67      30.781   3.150  -7.068  1.00  0.00     0.180 C 
ATOM   1618  O4'   C A  67      31.842   4.109  -6.795  1.00  0.00    -0.353 OA
ATOM   1619  C1'   C A  67      31.777   5.172  -7.724  1.00  0.00     0.264 C 
ATOM   1620  N1    C A  67      33.152   5.553  -8.094  1.00  0.00    -0.278 N 
ATOM   1621  C6    C A  67      33.607   6.823  -7.875  1.00  0.00     0.102 A 
ATOM   1622  C2    C A  67      33.990   4.595  -8.676  1.00  0.00     0.352 A 
ATOM   1623  O2    C A  67      33.555   3.452  -8.868  1.00  0.00    -0.244 OA
ATOM   1624  N3    C A  67      35.252   4.940  -9.016  1.00  0.00    -0.177 NA
ATOM   1625  C4    C A  67      35.686   6.180  -8.797  1.00  0.00     0.128 A 
ATOM   1626  N4    C A  67      36.937   6.471  -9.148  1.00  0.00    -0.384 N 
ATOM   1627  H41   C A  67      37.304   7.399  -8.999  1.00  0.00     0.157 HD
ATOM   1628  H42   C A  67      37.517   5.755  -9.562  1.00  0.00     0.157 HD
ATOM   1629  C5    C A  67      34.854   7.178  -8.210  1.00  0.00     0.067 A 
ATOM   1630  C2'   C A  67      30.931   4.686  -8.896  1.00  0.00     0.199 C 
ATOM   1631  O2'   C A  67      30.272   5.799  -9.470  1.00  0.00    -0.388 OA
ATOM   1632 'HO2   C A  67      29.333   5.640  -9.377  1.00  0.00     0.210 HD
ATOM   1633  C3'   C A  67      29.944   3.766  -8.186  1.00  0.00     0.198 C 
ATOM   1634  O3'   C A  67      28.824   4.476  -7.664  1.00  0.00    -0.279 OA
ATOM   1635  P     U A  68      27.381   3.766  -7.610  1.00  0.00     0.408 P 
ATOM   1636  OP1   U A  68      26.440   4.730  -6.987  1.00  0.00    -0.624 OA
ATOM   1637  OP2   U A  68      27.543   2.414  -7.021  1.00  0.00    -0.624 OA
ATOM   1638  O5'   U A  68      26.978   3.602  -9.143  1.00  0.00    -0.287 OA
ATOM   1639  C5'   U A  68      26.839   4.738  -9.994  1.00  0.00     0.216 C 
ATOM   1640  C4'   U A  68      25.377   5.075 -10.183  1.00  0.00     0.180 C 
ATOM   1641  O4'   U A  68      25.146   5.352 -11.592  1.00  0.00    -0.353 OA
ATOM   1642  C1'   U A  68      24.391   4.301 -12.170  1.00  0.00     0.264 C 
ATOM   1643  N1    U A  68      25.022   3.930 -13.444  1.00  0.00    -0.280 N 
ATOM   1644  C6    U A  68      26.286   3.387 -13.483  1.00  0.00     0.104 A 
ATOM   1645  C2    U A  68      24.301   4.144 -14.605  1.00  0.00     0.331 A 
ATOM   1646  O2    U A  68      23.180   4.621 -14.611  1.00  0.00    -0.246 OA
ATOM   1647  N3    U A  68      24.945   3.784 -15.760  1.00  0.00    -0.275 N 
ATOM   1648  H3    U A  68      24.436   3.932 -16.619  1.00  0.00     0.173 HD
ATOM   1649  C4    U A  68      26.205   3.242 -15.874  1.00  0.00     0.250 A 
ATOM   1650  O4    U A  68      26.650   2.981 -16.991  1.00  0.00    -0.268 OA
ATOM   1651  C5    U A  68      26.882   3.049 -14.631  1.00  0.00     0.092 A 
ATOM   1652  C2'   U A  68      24.335   3.169 -11.143  1.00  0.00     0.199 C 
ATOM   1653  O2'   U A  68      23.102   2.490 -11.280  1.00  0.00    -0.388 OA
ATOM   1654 'HO2   U A  68      22.948   2.007 -10.466  1.00  0.00     0.210 HD
ATOM   1655  C3'   U A  68      24.394   3.960  -9.843  1.00  0.00     0.198 C 
ATOM   1656  O3'   U A  68      23.118   4.480  -9.476  1.00  0.00    -0.279 OA
ATOM   1657  P     U A  69      22.776   4.749  -7.928  1.00  0.00     0.408 P 
ATOM   1658  OP1   U A  69      23.436   6.023  -7.541  1.00  0.00    -0.624 OA
ATOM   1659  OP2   U A  69      23.064   3.511  -7.160  1.00  0.00    -0.624 OA
ATOM   1660  O5'   U A  69      21.200   4.987  -7.921  1.00  0.00    -0.287 OA
ATOM   1661  C5'   U A  69      20.554   5.667  -8.997  1.00  0.00     0.216 C 
ATOM   1662  C4'   U A  69      19.657   4.713  -9.752  1.00  0.00     0.180 C 
ATOM   1663  O4'   U A  69      18.907   5.476 -10.739  1.00  0.00    -0.353 OA
ATOM   1664  C1'   U A  69      19.206   5.006 -12.037  1.00  0.00     0.264 C 
ATOM   1665  N1    U A  69      19.277   6.162 -12.941  1.00  0.00    -0.280 N 
ATOM   1666  C6    U A  69      20.278   7.101 -12.820  1.00  0.00     0.104 A 
ATOM   1667  C2    U A  69      18.306   6.280 -13.918  1.00  0.00     0.331 A 
ATOM   1668  O2    U A  69      17.406   5.471 -14.060  1.00  0.00    -0.246 OA
ATOM   1669  N3    U A  69      18.426   7.381 -14.726  1.00  0.00    -0.275 N 
ATOM   1670  H3    U A  69      17.721   7.494 -15.437  1.00  0.00     0.173 HD
ATOM   1671  C4    U A  69      19.397   8.354 -14.663  1.00  0.00     0.250 A 
ATOM   1672  O4    U A  69      19.371   9.286 -15.465  1.00  0.00    -0.268 OA
ATOM   1673  C5    U A  69      20.365   8.161 -13.629  1.00  0.00     0.092 A 
ATOM   1674  C2'   U A  69      20.507   4.216 -11.932  1.00  0.00     0.199 C 
ATOM   1675  O2'   U A  69      20.504   3.206 -12.923  1.00  0.00    -0.388 OA
ATOM   1676 'HO2   U A  69      20.302   2.383 -12.478  1.00  0.00     0.210 HD
ATOM   1677  C3'   U A  69      20.380   3.620 -10.535  1.00  0.00     0.198 C 
ATOM   1678  O3'   U A  69      19.640   2.402 -10.538  1.00  0.00    -0.279 OA
ATOM   1679  P     G A  70      19.993   1.249  -9.473  1.00  0.00     0.408 P 
ATOM   1680  OP1   G A  70      19.171   1.499  -8.261  1.00  0.00    -0.624 OA
ATOM   1681  OP2   G A  70      21.471   1.151  -9.351  1.00  0.00    -0.624 OA
ATOM   1682  O5'   G A  70      19.462  -0.087 -10.162  1.00  0.00    -0.287 OA
ATOM   1683  C5'   G A  70      18.213  -0.114 -10.853  1.00  0.00     0.216 C 
ATOM   1684  C4'   G A  70      18.105  -1.370 -11.688  1.00  0.00     0.180 C 
ATOM   1685  O4'   G A  70      18.618  -1.084 -13.019  1.00  0.00    -0.353 OA
ATOM   1686  C1'   G A  70      19.432  -2.154 -13.461  1.00  0.00     0.262 C 
ATOM   1687  N9    G A  70      20.812  -1.687 -13.531  1.00  0.00    -0.293 N 
ATOM   1688  C4    G A  70      21.886  -2.386 -14.030  1.00  0.00     0.187 A 
ATOM   1689  N3    G A  70      21.850  -3.633 -14.546  1.00  0.00    -0.044 NA
ATOM   1690  C2    G A  70      23.042  -4.036 -14.943  1.00  0.00     0.703 A 
ATOM   1691  N2    G A  70      23.185  -5.255 -15.474  1.00  0.00    -0.233 N 
ATOM   1692  H21   G A  70      22.372  -5.848 -15.563  1.00  0.00     0.174 HD
ATOM   1693  H22   G A  70      24.090  -5.581 -15.777  1.00  0.00     0.174 HD
ATOM   1694  N1    G A  70      24.181  -3.279 -14.847  1.00  0.00    -0.153 N 
ATOM   1695  H1    G A  70      25.044  -3.679 -15.181  1.00  0.00     0.187 HD
ATOM   1696  C6    G A  70      24.244  -1.993 -14.322  1.00  0.00     0.292 A 
ATOM   1697  O6    G A  70      25.327  -1.398 -14.284  1.00  0.00    -0.265 OA
ATOM   1698  C5    G A  70      22.968  -1.544 -13.887  1.00  0.00     0.173 A 
ATOM   1699  N7    G A  70      22.586  -0.341 -13.310  1.00  0.00    -0.234 NA
ATOM   1700  C8    G A  70      21.301  -0.472 -13.117  1.00  0.00     0.214 A 
ATOM   1701  C2'   G A  70      19.223  -3.313 -12.489  1.00  0.00     0.199 C 
ATOM   1702  O2'   G A  70      18.108  -4.069 -12.923  1.00  0.00    -0.388 OA
ATOM   1703 'HO2   G A  70      17.619  -3.522 -13.540  1.00  0.00     0.210 HD
ATOM   1704  C3'   G A  70      18.920  -2.561 -11.198  1.00  0.00     0.198 C 
ATOM   1705  O3'   G A  70      18.186  -3.354 -10.269  1.00  0.00    -0.279 OA
ATOM   1706  P     U A  71      18.959  -4.409  -9.331  1.00  0.00     0.408 P 
ATOM   1707  OP1   U A  71      17.933  -5.084  -8.498  1.00  0.00    -0.624 OA
ATOM   1708  OP2   U A  71      20.094  -3.712  -8.675  1.00  0.00    -0.624 OA
ATOM   1709  O5'   U A  71      19.546  -5.480 -10.356  1.00  0.00    -0.287 OA
ATOM   1710  C5'   U A  71      20.236  -6.640  -9.891  1.00  0.00     0.216 C 
ATOM   1711  C4'   U A  71      21.470  -6.883 -10.729  1.00  0.00     0.180 C 
ATOM   1712  O4'   U A  71      22.634  -6.454  -9.969  1.00  0.00    -0.353 OA
ATOM   1713  C1'   U A  71      23.419  -7.578  -9.615  1.00  0.00     0.264 C 
ATOM   1714  N1    U A  71      23.830  -7.430  -8.211  1.00  0.00    -0.280 N 
ATOM   1715  C6    U A  71      25.156  -7.274  -7.875  1.00  0.00     0.104 A 
ATOM   1716  C2    U A  71      22.846  -7.452  -7.237  1.00  0.00     0.331 A 
ATOM   1717  O2    U A  71      21.663  -7.591  -7.488  1.00  0.00    -0.246 OA
ATOM   1718  N3    U A  71      23.301  -7.306  -5.952  1.00  0.00    -0.275 N 
ATOM   1719  H3    U A  71      22.601  -7.311  -5.225  1.00  0.00     0.173 HD
ATOM   1720  C4    U A  71      24.607  -7.146  -5.547  1.00  0.00     0.250 A 
ATOM   1721  O4    U A  71      24.857  -7.030  -4.348  1.00  0.00    -0.268 OA
ATOM   1722  C5    U A  71      25.562  -7.136  -6.610  1.00  0.00     0.092 A 
ATOM   1723  C2'   U A  71      22.575  -8.819  -9.897  1.00  0.00     0.199 C 
ATOM   1724  O2'   U A  71      23.438  -9.879 -10.269  1.00  0.00    -0.388 OA
ATOM   1725 'HO2   U A  71      23.314 -10.017 -11.208  1.00  0.00     0.210 HD
ATOM   1726  C3'   U A  71      21.745  -8.341 -11.081  1.00  0.00     0.198 C 
ATOM   1727  O3'   U A  71      22.452  -8.462 -12.315  1.00  0.00    -0.279 OA
ATOM   1728  P     C A  72      21.638  -8.574 -13.698  1.00  0.00     0.408 P 
ATOM   1729  OP1   C A  72      22.449  -9.411 -14.618  1.00  0.00    -0.624 OA
ATOM   1730  OP2   C A  72      21.238  -7.206 -14.113  1.00  0.00    -0.624 OA
ATOM   1731  O5'   C A  72      20.321  -9.385 -13.313  1.00  0.00    -0.287 OA
ATOM   1732  C5'   C A  72      20.361 -10.795 -13.086  1.00  0.00     0.216 C 
ATOM   1733  C4'   C A  72      18.964 -11.368 -13.121  1.00  0.00     0.180 C 
ATOM   1734  O4'   C A  72      18.250 -10.919 -11.937  1.00  0.00    -0.353 OA
ATOM   1735  C1'   C A  72      16.931 -10.538 -12.285  1.00  0.00     0.264 C 
ATOM   1736  N1    C A  72      16.794  -9.089 -12.066  1.00  0.00    -0.278 N 
ATOM   1737  C6    C A  72      17.853  -8.247 -12.264  1.00  0.00     0.102 A 
ATOM   1738  C2    C A  72      15.558  -8.583 -11.652  1.00  0.00     0.352 A 
ATOM   1739  O2    C A  72      14.615  -9.368 -11.479  1.00  0.00    -0.244 OA
ATOM   1740  N3    C A  72      15.423  -7.254 -11.450  1.00  0.00    -0.177 NA
ATOM   1741  C4    C A  72      16.462  -6.442 -11.646  1.00  0.00     0.128 A 
ATOM   1742  N4    C A  72      16.281  -5.141 -11.437  1.00  0.00    -0.384 N 
ATOM   1743  H41   C A  72      17.049  -4.500 -11.579  1.00  0.00     0.157 HD
ATOM   1744  H42   C A  72      15.381  -4.799 -11.137  1.00  0.00     0.157 HD
ATOM   1745  C5    C A  72      17.733  -6.930 -12.067  1.00  0.00     0.067 A 
ATOM   1746  C2'   C A  72      16.694 -10.969 -13.732  1.00  0.00     0.199 C 
ATOM   1747  O2'   C A  72      16.188 -12.291 -13.739  1.00  0.00    -0.388 OA
ATOM   1748 'HO2   C A  72      16.866 -12.848 -14.122  1.00  0.00     0.210 HD
ATOM   1749  C3'   C A  72      18.108 -10.917 -14.298  1.00  0.00     0.198 C 
ATOM   1750  O3'   C A  72      18.276 -11.780 -15.419  1.00  0.00    -0.279 OA
ATOM   1751  P     C A  73      17.662 -11.369 -16.847  1.00  0.00     0.408 P 
ATOM   1752  OP1   C A  73      18.769 -11.434 -17.835  1.00  0.00    -0.624 OA
ATOM   1753  OP2   C A  73      16.892 -10.108 -16.689  1.00  0.00    -0.624 OA
ATOM   1754  O5'   C A  73      16.636 -12.543 -17.177  1.00  0.00    -0.287 OA
ATOM   1755  C5'   C A  73      16.975 -13.909 -16.931  1.00  0.00     0.216 C 
ATOM   1756  C4'   C A  73      16.042 -14.823 -17.693  1.00  0.00     0.180 C 
ATOM   1757  O4'   C A  73      14.717 -14.735 -17.099  1.00  0.00    -0.353 OA
ATOM   1758  C1'   C A  73      13.834 -14.076 -17.987  1.00  0.00     0.264 C 
ATOM   1759  N1    C A  73      13.079 -13.067 -17.226  1.00  0.00    -0.278 N 
ATOM   1760  C6    C A  73      13.690 -12.321 -16.257  1.00  0.00     0.102 A 
ATOM   1761  C2    C A  73      11.724 -12.880 -17.512  1.00  0.00     0.352 A 
ATOM   1762  O2    C A  73      11.194 -13.573 -18.391  1.00  0.00    -0.244 OA
ATOM   1763  N3    C A  73      11.026 -11.950 -16.821  1.00  0.00    -0.177 NA
ATOM   1764  C4    C A  73      11.632 -11.225 -15.882  1.00  0.00     0.128 A 
ATOM   1765  N4    C A  73      10.904 -10.320 -15.231  1.00  0.00    -0.384 N 
ATOM   1766  H41   C A  73      11.334  -9.754 -14.515  1.00  0.00     0.157 HD
ATOM   1767  H42   C A  73       9.929 -10.200 -15.460  1.00  0.00     0.157 HD
ATOM   1768  C5    C A  73      13.011 -11.397 -15.567  1.00  0.00     0.067 A 
ATOM   1769  C2'   C A  73      14.677 -13.490 -19.119  1.00  0.00     0.199 C 
ATOM   1770  O2'   C A  73      13.926 -13.537 -20.318  1.00  0.00    -0.388 OA
ATOM   1771 'HO2   C A  73      14.132 -14.371 -20.739  1.00  0.00     0.210 HD
ATOM   1772  C3'   C A  73      15.842 -14.474 -19.163  1.00  0.00     0.198 C 
ATOM   1773  O3'   C A  73      15.537 -15.627 -19.945  1.00  0.00    -0.279 OA
ATOM   1774  P     A A  74      16.707 -16.656 -20.346  1.00  0.00     0.408 P 
ATOM   1775  OP1   A A  74      17.948 -16.230 -19.647  1.00  0.00    -0.624 OA
ATOM   1776  OP2   A A  74      16.710 -16.794 -21.824  1.00  0.00    -0.624 OA
ATOM   1777  O5'   A A  74      16.226 -18.042 -19.721  1.00  0.00    -0.287 OA
ATOM   1778  C5'   A A  74      17.115 -18.853 -18.955  1.00  0.00     0.216 C 
ATOM   1779  C4'   A A  74      16.508 -20.218 -18.730  1.00  0.00     0.180 C 
ATOM   1780  O4'   A A  74      17.389 -21.215 -19.317  1.00  0.00    -0.353 OA
ATOM   1781  C1'   A A  74      17.849 -22.099 -18.316  1.00  0.00     0.262 C 
ATOM   1782  N9    A A  74      19.250 -22.417 -18.595  1.00  0.00    -0.294 N 
ATOM   1783  C4    A A  74      19.709 -23.501 -19.304  1.00  0.00     0.167 A 
ATOM   1784  N3    A A  74      18.975 -24.473 -19.874  1.00  0.00    -0.222 NA
ATOM   1785  C2    A A  74      19.760 -25.361 -20.478  1.00  0.00     0.237 A 
ATOM   1786  N1    A A  74      21.096 -25.388 -20.569  1.00  0.00    -0.222 NA
ATOM   1787  C6    A A  74      21.802 -24.397 -19.984  1.00  0.00     0.155 A 
ATOM   1788  N6    A A  74      23.132 -24.426 -20.074  1.00  0.00    -0.382 N 
ATOM   1789  H61   A A  74      23.681 -23.695 -19.644  1.00  0.00     0.157 HD
ATOM   1790  H62   A A  74      23.584 -25.181 -20.566  1.00  0.00     0.157 HD
ATOM   1791  C5    A A  74      21.087 -23.391 -19.311  1.00  0.00     0.149 A 
ATOM   1792  N7    A A  74      21.493 -22.257 -18.621  1.00  0.00    -0.236 NA
ATOM   1793  C8    A A  74      20.370 -21.716 -18.217  1.00  0.00     0.214 A 
ATOM   1794  C2'   A A  74      17.617 -21.405 -16.977  1.00  0.00     0.199 C 
ATOM   1795  O2'   A A  74      17.400 -22.392 -15.985  1.00  0.00    -0.388 OA
ATOM   1796 'HO2   A A  74      16.477 -22.643 -16.035  1.00  0.00     0.210 HD
ATOM   1797  C3'   A A  74      16.341 -20.622 -17.267  1.00  0.00     0.198 C 
ATOM   1798  O3'   A A  74      15.165 -21.405 -17.079  1.00  0.00    -0.279 OA
ATOM   1799  P     A A  75      14.237 -21.160 -15.786  1.00  0.00     0.408 P 
ATOM   1800  OP1   A A  75      14.134 -19.694 -15.572  1.00  0.00    -0.624 OA
ATOM   1801  OP2   A A  75      14.736 -22.029 -14.690  1.00  0.00    -0.624 OA
ATOM   1802  O5'   A A  75      12.804 -21.692 -16.235  1.00  0.00    -0.287 OA
ATOM   1803  C5'   A A  75      12.581 -23.076 -16.508  1.00  0.00     0.216 C 
ATOM   1804  C4'   A A  75      12.003 -23.249 -17.894  1.00  0.00     0.180 C 
ATOM   1805  O4'   A A  75      11.112 -22.133 -18.172  1.00  0.00    -0.353 OA
ATOM   1806  C1'   A A  75      11.690 -21.290 -19.152  1.00  0.00     0.262 C 
ATOM   1807  N9    A A  75      11.566 -19.905 -18.695  1.00  0.00    -0.294 N 
ATOM   1808  C4    A A  75      10.396 -19.258 -18.377  1.00  0.00     0.167 A 
ATOM   1809  N3    A A  75       9.150 -19.759 -18.420  1.00  0.00    -0.222 NA
ATOM   1810  C2    A A  75       8.261 -18.842 -18.042  1.00  0.00     0.237 A 
ATOM   1811  N1    A A  75       8.463 -17.575 -17.656  1.00  0.00    -0.222 NA
ATOM   1812  C6    A A  75       9.728 -17.103 -17.625  1.00  0.00     0.155 A 
ATOM   1813  N6    A A  75       9.927 -15.842 -17.242  1.00  0.00    -0.382 N 
ATOM   1814  H61   A A  75      10.864 -15.466 -17.212  1.00  0.00     0.157 HD
ATOM   1815  H62   A A  75       9.141 -15.263 -16.988  1.00  0.00     0.157 HD
ATOM   1816  C5    A A  75      10.762 -17.978 -18.002  1.00  0.00     0.149 A 
ATOM   1817  N7    A A  75      12.139 -17.819 -18.081  1.00  0.00    -0.236 NA
ATOM   1818  C8    A A  75      12.567 -18.986 -18.496  1.00  0.00     0.214 A 
ATOM   1819  C2'   A A  75      13.131 -21.751 -19.358  1.00  0.00     0.198 C 
ATOM   1820  O2'   A A  75      13.477 -21.548 -20.716  1.00  0.00    -0.388 OA
ATOM   1821 'HO2   A A  75      13.924 -22.340 -21.018  1.00  0.00     0.210 HD
ATOM   1822  C3'   A A  75      13.019 -23.236 -19.029  1.00  0.00     0.182 C 
ATOM   1823  O3'   A A  75      12.585 -24.017 -20.149  1.00  0.00    -0.390 OA
ATOM   1824 'HO3   A A  75      11.735 -23.668 -20.427  1.00  0.00     0.210 HD
ENDROOT
TORSDOF 576
ENDMDL
MODEL 4
REMARK VINA RESULT:     -18.6      3.674      5.972
REMARK  0 active torsions:
REMARK  status: ('A' for Active; 'I' for Inactive)
REMARK       I    between atoms: O5'_2  and  C5'_3 
REMARK       I    between atoms: C5'_3  and  C4'_4 
REMARK       I    between atoms: C1'_6  and  N9_7 
REMARK       I    between atoms: C2_10  and  N2_11 
REMARK       I    between atoms: C2'_21  and  O2'_22 
REMARK       I    between atoms: C3'_24  and  O3'_25 
REMARK       I    between atoms: O3'_25  and  P_26 
REMARK       I    between atoms: P_26  and  O5'_29 
REMARK       I    between atoms: O5'_29  and  C5'_30 
REMARK       I    between atoms: C5'_30  and  C4'_31 
REMARK       I    between atoms: C1'_33  and  N9_34 
REMARK       I    between atoms: C2_37  and  N2_38 
REMARK       I    between atoms: C2'_48  and  O2'_49 
REMARK       I    between atoms: C3'_51  and  O3'_52 
REMARK       I    between atoms: O3'_52  and  P_53 
REMARK       I    between atoms: P_53  and  O5'_56 
REMARK       I    between atoms: O5'_56  and  C5'_57 
REMARK       I    between atoms: C5'_57  and  C4'_58 
REMARK       I    between atoms: C1'_60  and  N9_61 
REMARK       I    between atoms: C2_64  and  N2_65 
REMARK       I    between atoms: C2'_75  and  O2'_76 
REMARK       I    between atoms: C3'_78  and  O3'_79 
REMARK       I    between atoms: O3'_79  and  P_80 
REMARK       I    between atoms: P_80  and  O5'_83 
REMARK       I    between atoms: O5'_83  and  C5'_84 
REMARK       I    between atoms: C5'_84  and  C4'_85 
REMARK       I    between atoms: C1'_87  and  N1_88 
REMARK       I    between atoms: C4_93  and  N4_94 
REMARK       I    between atoms: C2'_98  and  O2'_99 
REMARK       I    between atoms: C3'_101  and  O3'_102 
REMARK       I    between atoms: O3'_102  and  P_103 
REMARK       I    between atoms: P_103  and  O5'_106 
REMARK       I    between atoms: O5'_106  and  C5'_107 
REMARK       I    between atoms: C5'_107  and  C4'_108 
REMARK       I    between atoms: C1'_110  and  N9_111 
REMARK       I    between atoms: C6_116  and  N6_117 
REMARK       I    between atoms: C2'_123  and  O2'_124 
REMARK       I    between atoms: C3'_126  and  O3'_127 
REMARK       I    between atoms: O3'_127  and  P_128 
REMARK       I    between atoms: P_128  and  O5'_131 
REMARK       I    between atoms: O5'_131  and  C5'_132 
REMARK       I    between atoms: C5'_132  and  C4'_133 
REMARK       I    between atoms: C1'_135  and  N1_136 
REMARK       I    between atoms: C2'_145  and  O2'_146 
REMARK       I    between atoms: C3'_148  and  O3'_149 
REMARK       I    between atoms: O3'_149  and  P_150 
REMARK       I    between atoms: P_150  and  O5'_153 
REMARK       I    between atoms: O5'_153  and  C5'_154 
REMARK       I    between atoms: C5'_154  and  C4'_155 
REMARK       I    between atoms: C1'_157  and  N9_158 
REMARK       I    between atoms: C2_161  and  N2_162 
REMARK       I    between atoms: C2'_172  and  O2'_173 
REMARK       I    between atoms: C3'_175  and  O3'_176 
REMARK       I    between atoms: O3'_176  and  P_177 
REMARK       I    between atoms: P_177  and  O5'_180 
REMARK       I    between atoms: O5'_180  and  C5'_181 
REMARK       I    between atoms: C5'_181  and  C4'_182 
REMARK       I    between atoms: C1'_184  and  N1_185 
REMARK       I    between atoms: C2'_194  and  O2'_195 
REMARK       I    between atoms: C3'_197  and  O3'_198 
REMARK       I    between atoms: O3'_198  and  P_199 
REMARK       I    between atoms: P_199  and  O5'_202 
REMARK       I    between atoms: O5'_202  and  C5'_203 
REMARK       I    between atoms: C5'_203  and  C4'_204 
REMARK       I    between atoms: C1'_206  and  N9_207 
REMARK       I    between atoms: C2_210  and  N2_211 
REMARK       I    between atoms: C2'_221  and  O2'_222 
REMARK       I    between atoms: C3'_224  and  O3'_225 
REMARK       I    between atoms: O3'_225  and  P_226 
REMARK       I    between atoms: P_226  and  O5'_229 
REMARK       I    between atoms: O5'_229  and  C5'_230 
REMARK       I    between atoms: C5'_230  and  C4'_231 
REMARK       I    between atoms: C1'_233  and  N9_234 
REMARK       I    between atoms: C2_237  and  N2_238 
REMARK       I    between atoms: C2'_248  and  O2'_249 
REMARK       I    between atoms: C3'_251  and  O3'_252 
REMARK       I    between atoms: O3'_252  and  P_253 
REMARK       I    between atoms: P_253  and  O5'_256 
REMARK       I    between atoms: O5'_256  and  C5'_257 
REMARK       I    between atoms: C5'_257  and  C4'_258 
REMARK       I    between atoms: C1'_260  and  N1_261 
REMARK       I    between atoms: C2'_270  and  O2'_271 
REMARK       I    between atoms: C3'_273  and  O3'_274 
REMARK       I    between atoms: O3'_274  and  P_275 
REMARK       I    between atoms: P_275  and  O5'_278 
REMARK       I    between atoms: O5'_278  and  C5'_279 
REMARK       I    between atoms: C5'_279  and  C4'_280 
REMARK       I    between atoms: C1'_282  and  N9_283 
REMARK       I    between atoms: C2_286  and  N2_287 
REMARK       I    between atoms: C2'_297  and  O2'_298 
REMARK       I    between atoms: C3'_300  and  O3'_301 
REMARK       I    between atoms: O3'_301  and  P_302 
REMARK       I    between atoms: P_302  and  O5'_305 
REMARK       I    between atoms: O5'_305  and  C5'_306 
REMARK       I    between atoms: C5'_306  and  C4'_307 
REMARK       I    between atoms: C1'_309  and  N1_310 
REMARK       I    between atoms: C2'_319  and  O2'_320 
REMARK       I    between atoms: C3'_322  and  O3'_323 
REMARK       I    between atoms: O3'_323  and  P_324 
REMARK       I    between atoms: P_324  and  O5'_327 
REMARK       I    between atoms: O5'_327  and  C5'_328 
REMARK       I    between atoms: C5'_328  and  C4'_329 
REMARK       I    between atoms: C1'_331  and  N9_332 
REMARK       I    between atoms: C6_337  and  N6_338 
REMARK       I    between atoms: C2'_344  and  O2'_345 
REMARK       I    between atoms: C3'_347  and  O3'_348 
REMARK       I    between atoms: O3'_348  and  P_349 
REMARK       I    between atoms: P_349  and  O5'_352 
REMARK       I    between atoms: O5'_352  and  C5'_353 
REMARK       I    between atoms: C5'_353  and  C4'_354 
REMARK       I    between atoms: C1'_356  and  N9_357 
REMARK       I    between atoms: C2_360  and  N2_361 
REMARK       I    between atoms: C2'_371  and  O2'_372 
REMARK       I    between atoms: C3'_374  and  O3'_375 
REMARK       I    between atoms: O3'_375  and  P_376 
REMARK       I    between atoms: P_376  and  O5'_379 
REMARK       I    between atoms: O5'_379  and  C5'_380 
REMARK       I    between atoms: C5'_380  and  C4'_381 
REMARK       I    between atoms: C1'_383  and  N9_384 
REMARK       I    between atoms: C6_389  and  N6_390 
REMARK       I    between atoms: C2'_396  and  O2'_397 
REMARK       I    between atoms: C3'_399  and  O3'_400 
REMARK       I    between atoms: O3'_400  and  P_401 
REMARK       I    between atoms: P_401  and  O5'_404 
REMARK       I    between atoms: O5'_404  and  C5'_405 
REMARK       I    between atoms: C5'_405  and  C4'_406 
REMARK       I    between atoms: C1'_408  and  N1_409 
REMARK       I    between atoms: C2'_418  and  O2'_419 
REMARK       I    between atoms: C3'_421  and  O3'_422 
REMARK       I    between atoms: O3'_422  and  P_423 
REMARK       I    between atoms: P_423  and  O5'_426 
REMARK       I    between atoms: O5'_426  and  C5'_427 
REMARK       I    between atoms: C5'_427  and  C4'_428 
REMARK       I    between atoms: C1'_430  and  N9_431 
REMARK       I    between atoms: C2_434  and  N2_435 
REMARK       I    between atoms: C2'_445  and  O2'_446 
REMARK       I    between atoms: C3'_448  and  O3'_449 
REMARK       I    between atoms: O3'_449  and  P_450 
REMARK       I    between atoms: P_450  and  O5'_453 
REMARK       I    between atoms: O5'_453  and  C5'_454 
REMARK       I    between atoms: C5'_454  and  C4'_455 
REMARK       I    between atoms: C1'_457  and  N9_458 
REMARK       I    between atoms: C2_461  and  N2_462 
REMARK       I    between atoms: C2'_472  and  O2'_473 
REMARK       I    between atoms: C3'_475  and  O3'_476 
REMARK       I    between atoms: O3'_476  and  P_477 
REMARK       I    between atoms: P_477  and  O5'_480 
REMARK       I    between atoms: O5'_480  and  C5'_481 
REMARK       I    between atoms: C5'_481  and  C4'_482 
REMARK       I    between atoms: C1'_484  and  N1_485 
REMARK       I    between atoms: C2'_494  and  O2'_495 
REMARK       I    between atoms: C3'_497  and  O3'_498 
REMARK       I    between atoms: O3'_498  and  P_499 
REMARK       I    between atoms: P_499  and  O5'_502 
REMARK       I    between atoms: O5'_502  and  C5'_503 
REMARK       I    between atoms: C5'_503  and  C4'_504 
REMARK       I    between atoms: C1'_506  and  N1_507 
REMARK       I    between atoms: C2'_516  and  O2'_517 
REMARK       I    between atoms: C3'_519  and  O3'_520 
REMARK       I    between atoms: O3'_520  and  P_521 
REMARK       I    between atoms: P_521  and  O5'_524 
REMARK       I    between atoms: O5'_524  and  C5'_525 
REMARK       I    between atoms: C5'_525  and  C4'_526 
REMARK       I    between atoms: C1'_528  and  N9_529 
REMARK       I    between atoms: C6_534  and  N6_535 
REMARK       I    between atoms: C2'_541  and  O2'_542 
REMARK       I    between atoms: C3'_544  and  O3'_545 
REMARK       I    between atoms: O3'_545  and  P_546 
REMARK       I    between atoms: P_546  and  O5'_549 
REMARK       I    between atoms: O5'_549  and  C5'_550 
REMARK       I    between atoms: C5'_550  and  C4'_551 
REMARK       I    between atoms: C1'_553  and  N1_554 
REMARK       I    between atoms: C2'_563  and  O2'_564 
REMARK       I    between atoms: C3'_566  and  O3'_567 
REMARK       I    between atoms: O3'_567  and  P_568 
REMARK       I    between atoms: P_568  and  O5'_571 
REMARK       I    between atoms: O5'_571  and  C5'_572 
REMARK       I    between atoms: C5'_572  and  C4'_573 
REMARK       I    between atoms: C1'_575  and  N1_576 
REMARK       I    between atoms: C4_581  and  N4_582 
REMARK       I    between atoms: C2'_586  and  O2'_587 
REMARK       I    between atoms: C3'_589  and  O3'_590 
REMARK       I    between atoms: O3'_590  and  P_591 
REMARK       I    between atoms: P_591  and  O5'_594 
REMARK       I    between atoms: O5'_594  and  C5'_595 
REMARK       I    between atoms: C5'_595  and  C4'_596 
REMARK       I    between atoms: C1'_598  and  N9_599 
REMARK       I    between atoms: C6_604  and  N6_605 
REMARK       I    between atoms: C2'_611  and  O2'_612 
REMARK       I    between atoms: C3'_614  and  O3'_615 
REMARK       I    between atoms: O3'_615  and  P_616 
REMARK       I    between atoms: P_616  and  O5'_619 
REMARK       I    between atoms: O5'_619  and  C5'_620 
REMARK       I    between atoms: C5'_620  and  C4'_621 
REMARK       I    between atoms: C1'_623  and  N1_624 
REMARK       I    between atoms: C4_629  and  N4_630 
REMARK       I    between atoms: C2'_634  and  O2'_635 
REMARK       I    between atoms: C3'_637  and  O3'_638 
REMARK       I    between atoms: O3'_638  and  P_639 
REMARK       I    between atoms: P_639  and  O5'_642 
REMARK       I    between atoms: O5'_642  and  C5'_643 
REMARK       I    between atoms: C5'_643  and  C4'_644 
REMARK       I    between atoms: C1'_646  and  N9_647 
REMARK       I    between atoms: C2_650  and  N2_651 
REMARK       I    between atoms: C2'_661  and  O2'_662 
REMARK       I    between atoms: C3'_664  and  O3'_665 
REMARK       I    between atoms: O3'_665  and  P_666 
REMARK       I    between atoms: P_666  and  O5'_669 
REMARK       I    between atoms: O5'_669  and  C5'_670 
REMARK       I    between atoms: C5'_670  and  C4'_671 
REMARK       I    between atoms: C1'_673  and  N1_674 
REMARK       I    between atoms: C4_679  and  N4_680 
REMARK       I    between atoms: C2'_684  and  O2'_685 
REMARK       I    between atoms: C3'_687  and  O3'_688 
REMARK       I    between atoms: O3'_688  and  P_689 
REMARK       I    between atoms: P_689  and  O5'_692 
REMARK       I    between atoms: O5'_692  and  C5'_693 
REMARK       I    between atoms: C5'_693  and  C4'_694 
REMARK       I    between atoms: C1'_696  and  N1_697 
REMARK       I    between atoms: C2'_706  and  O2'_707 
REMARK       I    between atoms: C3'_709  and  O3'_710 
REMARK       I    between atoms: O3'_710  and  P_711 
REMARK       I    between atoms: P_711  and  O5'_714 
REMARK       I    between atoms: O5'_714  and  C5'_715 
REMARK       I    between atoms: C5'_715  and  C4'_716 
REMARK       I    between atoms: C1'_718  and  N1_719 
REMARK       I    between atoms: C2'_728  and  O2'_729 
REMARK       I    between atoms: C3'_731  and  O3'_732 
REMARK       I    between atoms: O3'_732  and  P_733 
REMARK       I    between atoms: P_733  and  O5'_736 
REMARK       I    between atoms: O5'_736  and  C5'_737 
REMARK       I    between atoms: C5'_737  and  C4'_738 
REMARK       I    between atoms: C1'_740  and  N1_741 
REMARK       I    between atoms: C4_746  and  N4_747 
REMARK       I    between atoms: C2'_751  and  O2'_752 
REMARK       I    between atoms: C3'_754  and  O3'_755 
REMARK       I    between atoms: O3'_755  and  P_756 
REMARK       I    between atoms: P_756  and  O5'_759 
REMARK       I    between atoms: O5'_759  and  C5'_760 
REMARK       I    between atoms: C5'_760  and  C4'_761 
REMARK       I    between atoms: C1'_763  and  N1_764 
REMARK       I    between atoms: C4_769  and  N4_770 
REMARK       I    between atoms: C2'_774  and  O2'_775 
REMARK       I    between atoms: C3'_777  and  O3'_778 
REMARK       I    between atoms: O3'_778  and  P_779 
REMARK       I    between atoms: P_779  and  O5'_782 
REMARK       I    between atoms: O5'_782  and  C5'_783 
REMARK       I    between atoms: C5'_783  and  C4'_784 
REMARK       I    between atoms: C1'_786  and  N1_787 
REMARK       I    between atoms: C2'_796  and  O2'_797 
REMARK       I    between atoms: C3'_799  and  O3'_800 
REMARK       I    between atoms: O3'_800  and  P_801 
REMARK       I    between atoms: P_801  and  O5'_804 
REMARK       I    between atoms: O5'_804  and  C5'_805 
REMARK       I    between atoms: C5'_805  and  C4'_806 
REMARK       I    between atoms: C1'_808  and  N1_809 
REMARK       I    between atoms: C2'_818  and  O2'_819 
REMARK       I    between atoms: C3'_821  and  O3'_822 
REMARK       I    between atoms: O3'_822  and  P_823 
REMARK       I    between atoms: P_823  and  O5'_826 
REMARK       I    between atoms: O5'_826  and  C5'_827 
REMARK       I    between atoms: C5'_827  and  C4'_828 
REMARK       I    between atoms: C1'_830  and  N9_831 
REMARK       I    between atoms: C6_836  and  N6_837 
REMARK       I    between atoms: C2'_843  and  O2'_844 
REMARK       I    between atoms: C3'_846  and  O3'_847 
REMARK       I    between atoms: O3'_847  and  P_848 
REMARK       I    between atoms: P_848  and  O5'_851 
REMARK       I    between atoms: O5'_851  and  C5'_852 
REMARK       I    between atoms: C5'_852  and  C4'_853 
REMARK       I    between atoms: C1'_855  and  N9_856 
REMARK       I    between atoms: C2_859  and  N2_860 
REMARK       I    between atoms: C2'_870  and  O2'_871 
REMARK       I    between atoms: C3'_873  and  O3'_874 
REMARK       I    between atoms: O3'_874  and  P_875 
REMARK       I    between atoms: P_875  and  O5'_878 
REMARK       I    between atoms: O5'_878  and  C5'_879 
REMARK       I    between atoms: C5'_879  and  C4'_880 
REMARK       I    between atoms: C1'_882  and  N1_883 
REMARK       I    between atoms: C4_888  and  N4_889 
REMARK       I    between atoms: C2'_893  and  O2'_894 
REMARK       I    between atoms: C3'_896  and  O3'_897 
REMARK       I    between atoms: O3'_897  and  P_898 
REMARK       I    between atoms: P_898  and  O5'_901 
REMARK       I    between atoms: O5'_901  and  C5'_902 
REMARK       I    between atoms: C5'_902  and  C4'_903 
REMARK       I    between atoms: C1'_905  and  N9_906 
REMARK       I    between atoms: C6_911  and  N6_912 
REMARK       I    between atoms: C2'_918  and  O2'_919 
REMARK       I    between atoms: C3'_921  and  O3'_922 
REMARK       I    between atoms: O3'_922  and  P_923 
REMARK       I    between atoms: P_923  and  O5'_926 
REMARK       I    between atoms: O5'_926  and  C5'_927 
REMARK       I    between atoms: C5'_927  and  C4'_928 
REMARK       I    between atoms: C1'_930  and  N1_931 
REMARK       I    between atoms: C2'_940  and  O2'_941 
REMARK       I    between atoms: C3'_943  and  O3'_944 
REMARK       I    between atoms: O3'_944  and  P_945 
REMARK       I    between atoms: P_945  and  O5'_948 
REMARK       I    between atoms: O5'_948  and  C5'_949 
REMARK       I    between atoms: C5'_949  and  C4'_950 
REMARK       I    between atoms: C1'_952  and  N9_953 
REMARK       I    between atoms: C2_956  and  N2_957 
REMARK       I    between atoms: C2'_967  and  O2'_968 
REMARK       I    between atoms: C3'_970  and  O3'_971 
REMARK       I    between atoms: O3'_971  and  P_972 
REMARK       I    between atoms: P_972  and  O5'_975 
REMARK       I    between atoms: O5'_975  and  C5'_976 
REMARK       I    between atoms: C5'_976  and  C4'_977 
REMARK       I    between atoms: C1'_979  and  N9_980 
REMARK       I    between atoms: C2_983  and  N2_984 
REMARK       I    between atoms: C2'_994  and  O2'_995 
REMARK       I    between atoms: C3'_997  and  O3'_998 
REMARK       I    between atoms: O3'_998  and  P_999 
REMARK       I    between atoms: P_999  and  O5'_1002 
REMARK       I    between atoms: O5'_1002  and  C5'_1003 
REMARK       I    between atoms: C5'_1003  and  C4'_1004 
REMARK       I    between atoms: C1'_1006  and  N9_1007 
REMARK       I    between atoms: C6_1012  and  N6_1013 
REMARK       I    between atoms: C2'_1019  and  O2'_1020 
REMARK       I    between atoms: C3'_1022  and  O3'_1023 
REMARK       I    between atoms: O3'_1023  and  P_1024 
REMARK       I    between atoms: P_1024  and  O5'_1027 
REMARK       I    between atoms: O5'_1027  and  C5'_1028 
REMARK       I    between atoms: C5'_1028  and  C4'_1029 
REMARK       I    between atoms: C1'_1031  and  N9_1032 
REMARK       I    between atoms: C6_1037  and  N6_1038 
REMARK       I    between atoms: C2'_1044  and  O2'_1045 
REMARK       I    between atoms: C3'_1047  and  O3'_1048 
REMARK       I    between atoms: O3'_1048  and  P_1049 
REMARK       I    between atoms: P_1049  and  O5'_1052 
REMARK       I    between atoms: O5'_1052  and  C5'_1053 
REMARK       I    between atoms: C5'_1053  and  C4'_1054 
REMARK       I    between atoms: C1'_1056  and  N9_1057 
REMARK       I    between atoms: C2_1060  and  N2_1061 
REMARK       I    between atoms: C2'_1071  and  O2'_1072 
REMARK       I    between atoms: C3'_1074  and  O3'_1075 
REMARK       I    between atoms: O3'_1075  and  P_1076 
REMARK       I    between atoms: P_1076  and  O5'_1079 
REMARK       I    between atoms: O5'_1079  and  C5'_1080 
REMARK       I    between atoms: C5'_1080  and  C4'_1081 
REMARK       I    between atoms: C1'_1083  and  N9_1084 
REMARK       I    between atoms: C6_1089  and  N6_1090 
REMARK       I    between atoms: C2'_1096  and  O2'_1097 
REMARK       I    between atoms: C3'_1099  and  O3'_1100 
REMARK       I    between atoms: O3'_1100  and  P_1101 
REMARK       I    between atoms: P_1101  and  O5'_1104 
REMARK       I    between atoms: O5'_1104  and  C5'_1105 
REMARK       I    between atoms: C5'_1105  and  C4'_1106 
REMARK       I    between atoms: C1'_1108  and  N9_1109 
REMARK       I    between atoms: C2_1112  and  N2_1113 
REMARK       I    between atoms: C2'_1123  and  O2'_1124 
REMARK       I    between atoms: C3'_1126  and  O3'_1127 
REMARK       I    between atoms: O3'_1127  and  P_1128 
REMARK       I    between atoms: P_1128  and  O5'_1131 
REMARK       I    between atoms: O5'_1131  and  C5'_1132 
REMARK       I    between atoms: C5'_1132  and  C4'_1133 
REMARK       I    between atoms: C1'_1135  and  N9_1136 
REMARK       I    between atoms: C2_1139  and  N2_1140 
REMARK       I    between atoms: C2'_1150  and  O2'_1151 
REMARK       I    between atoms: C3'_1153  and  O3'_1154 
REMARK       I    between atoms: O3'_1154  and  P_1155 
REMARK       I    between atoms: P_1155  and  O5'_1158 
REMARK       I    between atoms: O5'_1158  and  C5'_1159 
REMARK       I    between atoms: C5'_1159  and  C4'_1160 
REMARK       I    between atoms: C1'_1162  and  N1_1163 
REMARK       I    between atoms: C2'_1172  and  O2'_1173 
REMARK       I    between atoms: C3'_1175  and  O3'_1176 
REMARK       I    between atoms: O3'_1176  and  P_1177 
REMARK       I    between atoms: P_1177  and  O5'_1180 
REMARK       I    between atoms: O5'_1180  and  C5'_1181 
REMARK       I    between atoms: C5'_1181  and  C4'_1182 
REMARK       I    between atoms: C1'_1184  and  N1_1185 
REMARK       I    between atoms: C4_1190  and  N4_1191 
REMARK       I    between atoms: C2'_1195  and  O2'_1196 
REMARK       I    between atoms: C3'_1198  and  O3'_1199 
REMARK       I    between atoms: O3'_1199  and  P_1200 
REMARK       I    between atoms: P_1200  and  O5'_1203 
REMARK       I    between atoms: O5'_1203  and  C5'_1204 
REMARK       I    between atoms: C5'_1204  and  C4'_1205 
REMARK       I    between atoms: C1'_1207  and  N1_1208 
REMARK       I    between atoms: C4_1213  and  N4_1214 
REMARK       I    between atoms: C2'_1218  and  O2'_1219 
REMARK       I    between atoms: C3'_1221  and  O3'_1222 
REMARK       I    between atoms: O3'_1222  and  P_1223 
REMARK       I    between atoms: P_1223  and  O5'_1226 
REMARK       I    between atoms: O5'_1226  and  C5'_1227 
REMARK       I    between atoms: C5'_1227  and  C4'_1228 
REMARK       I    between atoms: C1'_1230  and  N1_1231 
REMARK       I    between atoms: C4_1236  and  N4_1237 
REMARK       I    between atoms: C2'_1241  and  O2'_1242 
REMARK       I    between atoms: C3'_1244  and  O3'_1245 
REMARK       I    between atoms: O3'_1245  and  P_1246 
REMARK       I    between atoms: P_1246  and  O5'_1249 
REMARK       I    between atoms: O5'_1249  and  C5'_1250 
REMARK       I    between atoms: C5'_1250  and  C4'_1251 
REMARK       I    between atoms: C1'_1253  and  N9_1254 
REMARK       I    between atoms: C6_1259  and  N6_1260 
REMARK       I    between atoms: C2'_1266  and  O2'_1267 
REMARK       I    between atoms: C3'_1269  and  O3'_1270 
REMARK       I    between atoms: O3'_1270  and  P_1271 
REMARK       I    between atoms: P_1271  and  O5'_1274 
REMARK       I    between atoms: O5'_1274  and  C5'_1275 
REMARK       I    between atoms: C5'_1275  and  C4'_1276 
REMARK       I    between atoms: C1'_1278  and  N9_1279 
REMARK       I    between atoms: C2_1282  and  N2_1283 
REMARK       I    between atoms: C2'_1293  and  O2'_1294 
REMARK       I    between atoms: C3'_1296  and  O3'_1297 
REMARK       I    between atoms: O3'_1297  and  P_1298 
REMARK       I    between atoms: P_1298  and  O5'_1301 
REMARK       I    between atoms: O5'_1301  and  C5'_1302 
REMARK       I    between atoms: C5'_1302  and  C4'_1303 
REMARK       I    between atoms: C1'_1305  and  N9_1306 
REMARK       I    between atoms: C6_1311  and  N6_1312 
REMARK       I    between atoms: C2'_1318  and  O2'_1319 
REMARK       I    between atoms: C3'_1321  and  O3'_1322 
REMARK       I    between atoms: O3'_1322  and  P_1323 
REMARK       I    between atoms: P_1323  and  O5'_1326 
REMARK       I    between atoms: O5'_1326  and  C5'_1327 
REMARK       I    between atoms: C5'_1327  and  C4'_1328 
REMARK       I    between atoms: C1'_1330  and  N1_1331 
REMARK       I    between atoms: C2'_1340  and  O2'_1341 
REMARK       I    between atoms: C3'_1343  and  O3'_1344 
REMARK       I    between atoms: O3'_1344  and  P_1345 
REMARK       I    between atoms: P_1345  and  O5'_1348 
REMARK       I    between atoms: O5'_1348  and  C5'_1349 
REMARK       I    between atoms: C5'_1349  and  C4'_1350 
REMARK       I    between atoms: C1'_1352  and  N1_1353 
REMARK       I    between atoms: C2'_1362  and  O2'_1363 
REMARK       I    between atoms: C3'_1365  and  O3'_1366 
REMARK       I    between atoms: O3'_1366  and  P_1367 
REMARK       I    between atoms: P_1367  and  O5'_1370 
REMARK       I    between atoms: O5'_1370  and  C5'_1371 
REMARK       I    between atoms: C5'_1371  and  C4'_1372 
REMARK       I    between atoms: C1'_1374  and  N1_1375 
REMARK       I    between atoms: C4_1380  and  N4_1381 
REMARK       I    between atoms: C2'_1385  and  O2'_1386 
REMARK       I    between atoms: C3'_1388  and  O3'_1389 
REMARK       I    between atoms: O3'_1389  and  P_1390 
REMARK       I    between atoms: P_1390  and  O5'_1393 
REMARK       I    between atoms: O5'_1393  and  C5'_1394 
REMARK       I    between atoms: C5'_1394  and  C4'_1395 
REMARK       I    between atoms: C1'_1397  and  N9_1398 
REMARK       I    between atoms: C2_1401  and  N2_1402 
REMARK       I    between atoms: C2'_1412  and  O2'_1413 
REMARK       I    between atoms: C3'_1415  and  O3'_1416 
REMARK       I    between atoms: O3'_1416  and  P_1417 
REMARK       I    between atoms: P_1417  and  O5'_1420 
REMARK       I    between atoms: O5'_1420  and  C5'_1421 
REMARK       I    between atoms: C5'_1421  and  C4'_1422 
REMARK       I    between atoms: C1'_1424  and  N9_1425 
REMARK       I    between atoms: C6_1430  and  N6_1431 
REMARK       I    between atoms: C2'_1437  and  O2'_1438 
REMARK       I    between atoms: C3'_1440  and  O3'_1441 
REMARK       I    between atoms: O3'_1441  and  P_1442 
REMARK       I    between atoms: P_1442  and  O5'_1445 
REMARK       I    between atoms: O5'_1445  and  C5'_1446 
REMARK       I    between atoms: C5'_1446  and  C4'_1447 
REMARK       I    between atoms: C1'_1449  and  N9_1450 
REMARK       I    between atoms: C2_1453  and  N2_1454 
REMARK       I    between atoms: C2'_1464  and  O2'_1465 
REMARK       I    between atoms: C3'_1467  and  O3'_1468 
REMARK       I    between atoms: O3'_1468  and  P_1469 
REMARK       I    between atoms: P_1469  and  O5'_1472 
REMARK       I    between atoms: O5'_1472  and  C5'_1473 
REMARK       I    between atoms: C5'_1473  and  C4'_1474 
REMARK       I    between atoms: C1'_1476  and  N1_1477 
REMARK       I    between atoms: C2'_1486  and  O2'_1487 
REMARK       I    between atoms: C3'_1489  and  O3'_1490 
REMARK       I    between atoms: O3'_1490  and  P_1491 
REMARK       I    between atoms: P_1491  and  O5'_1494 
REMARK       I    between atoms: O5'_1494  and  C5'_1495 
REMARK       I    between atoms: C5'_1495  and  C4'_1496 
REMARK       I    between atoms: C1'_1498  and  N1_1499 
REMARK       I    between atoms: C2'_1508  and  O2'_1509 
REMARK       I    between atoms: C3'_1511  and  O3'_1512 
REMARK       I    between atoms: O3'_1512  and  P_1513 
REMARK       I    between atoms: P_1513  and  O5'_1516 
REMARK       I    between atoms: O5'_1516  and  C5'_1517 
REMARK       I    between atoms: C5'_1517  and  C4'_1518 
REMARK       I    between atoms: C1'_1520  and  N1_1521 
REMARK       I    between atoms: C4_1526  and  N4_1527 
REMARK       I    between atoms: C2'_1531  and  O2'_1532 
REMARK       I    between atoms: C3'_1534  and  O3'_1535 
REMARK       I    between atoms: O3'_1535  and  P_1536 
REMARK       I    between atoms: P_1536  and  O5'_1539 
REMARK       I    between atoms: O5'_1539  and  C5'_1540 
REMARK       I    between atoms: C5'_1540  and  C4'_1541 
REMARK       I    between atoms: C1'_1543  and  N1_1544 
REMARK       I    between atoms: C2'_1553  and  O2'_1554 
REMARK       I    between atoms: C3'_1556  and  O3'_1557 
REMARK       I    between atoms: O3'_1557  and  P_1558 
REMARK       I    between atoms: P_1558  and  O5'_1561 
REMARK       I    between atoms: O5'_1561  and  C5'_1562 
REMARK       I    between atoms: C5'_1562  and  C4'_1563 
REMARK       I    between atoms: C1'_1565  and  N9_1566 
REMARK       I    between atoms: C2_1569  and  N2_1570 
REMARK       I    between atoms: C2'_1580  and  O2'_1581 
REMARK       I    between atoms: C3'_1583  and  O3'_1584 
REMARK       I    between atoms: O3'_1584  and  P_1585 
REMARK       I    between atoms: P_1585  and  O5'_1588 
REMARK       I    between atoms: O5'_1588  and  C5'_1589 
REMARK       I    between atoms: C5'_1589  and  C4'_1590 
REMARK       I    between atoms: C1'_1592  and  N9_1593 
REMARK       I    between atoms: C2_1596  and  N2_1597 
REMARK       I    between atoms: C2'_1607  and  O2'_1608 
REMARK       I    between atoms: C3'_1610  and  O3'_1611 
REMARK       I    between atoms: O3'_1611  and  P_1612 
REMARK       I    between atoms: P_1612  and  O5'_1615 
REMARK       I    between atoms: O5'_1615  and  C5'_1616 
REMARK       I    between atoms: C5'_1616  and  C4'_1617 
REMARK       I    between atoms: C1'_1619  and  N1_1620 
REMARK       I    between atoms: C4_1625  and  N4_1626 
REMARK       I    between atoms: C2'_1630  and  O2'_1631 
REMARK       I    between atoms: C3'_1633  and  O3'_1634 
REMARK       I    between atoms: O3'_1634  and  P_1635 
REMARK       I    between atoms: P_1635  and  O5'_1638 
REMARK       I    between atoms: O5'_1638  and  C5'_1639 
REMARK       I    between atoms: C5'_1639  and  C4'_1640 
REMARK       I    between atoms: C1'_1642  and  N1_1643 
REMARK       I    between atoms: C2'_1652  and  O2'_1653 
REMARK       I    between atoms: C3'_1655  and  O3'_1656 
REMARK       I    between atoms: O3'_1656  and  P_1657 
REMARK       I    between atoms: P_1657  and  O5'_1660 
REMARK       I    between atoms: O5'_1660  and  C5'_1661 
REMARK       I    between atoms: C5'_1661  and  C4'_1662 
REMARK       I    between atoms: C1'_1664  and  N1_1665 
REMARK       I    between atoms: C2'_1674  and  O2'_1675 
REMARK       I    between atoms: C3'_1677  and  O3'_1678 
REMARK       I    between atoms: O3'_1678  and  P_1679 
REMARK       I    between atoms: P_1679  and  O5'_1682 
REMARK       I    between atoms: O5'_1682  and  C5'_1683 
REMARK       I    between atoms: C5'_1683  and  C4'_1684 
REMARK       I    between atoms: C1'_1686  and  N9_1687 
REMARK       I    between atoms: C2_1690  and  N2_1691 
REMARK       I    between atoms: C2'_1701  and  O2'_1702 
REMARK       I    between atoms: C3'_1704  and  O3'_1705 
REMARK       I    between atoms: O3'_1705  and  P_1706 
REMARK       I    between atoms: P_1706  and  O5'_1709 
REMARK       I    between atoms: O5'_1709  and  C5'_1710 
REMARK       I    between atoms: C5'_1710  and  C4'_1711 
REMARK       I    between atoms: C1'_1713  and  N1_1714 
REMARK       I    between atoms: C2'_1723  and  O2'_1724 
REMARK       I    between atoms: C3'_1726  and  O3'_1727 
REMARK       I    between atoms: O3'_1727  and  P_1728 
REMARK       I    between atoms: P_1728  and  O5'_1731 
REMARK       I    between atoms: O5'_1731  and  C5'_1732 
REMARK       I    between atoms: C5'_1732  and  C4'_1733 
REMARK       I    between atoms: C1'_1735  and  N1_1736 
REMARK       I    between atoms: C4_1741  and  N4_1742 
REMARK       I    between atoms: C2'_1746  and  O2'_1747 
REMARK       I    between atoms: C3'_1749  and  O3'_1750 
REMARK       I    between atoms: O3'_1750  and  P_1751 
REMARK       I    between atoms: P_1751  and  O5'_1754 
REMARK       I    between atoms: O5'_1754  and  C5'_1755 
REMARK       I    between atoms: C5'_1755  and  C4'_1756 
REMARK       I    between atoms: C1'_1758  and  N1_1759 
REMARK       I    between atoms: C4_1764  and  N4_1765 
REMARK       I    between atoms: C2'_1769  and  O2'_1770 
REMARK       I    between atoms: C3'_1772  and  O3'_1773 
REMARK       I    between atoms: O3'_1773  and  P_1774 
REMARK       I    between atoms: P_1774  and  O5'_1777 
REMARK       I    between atoms: O5'_1777  and  C5'_1778 
REMARK       I    between atoms: C5'_1778  and  C4'_1779 
REMARK       I    between atoms: C1'_1781  and  N9_1782 
REMARK       I    between atoms: C6_1787  and  N6_1788 
REMARK       I    between atoms: C2'_1794  and  O2'_1795 
REMARK       I    between atoms: C3'_1797  and  O3'_1798 
REMARK       I    between atoms: O3'_1798  and  P_1799 
REMARK       I    between atoms: P_1799  and  O5'_1802 
REMARK       I    between atoms: O5'_1802  and  C5'_1803 
REMARK       I    between atoms: C5'_1803  and  C4'_1804 
REMARK       I    between atoms: C1'_1806  and  N9_1807 
REMARK       I    between atoms: C6_1812  and  N6_1813 
REMARK       I    between atoms: C2'_1819  and  O2'_1820 
REMARK       I    between atoms: C3'_1822  and  O3'_1823 
ROOT
ATOM      1 'HO5   G A   1      22.732  26.508   4.923  1.00  0.00     0.209 HD
ATOM      2  O5'   G A   1      22.007  26.998   5.319  1.00  0.00    -0.398 OA
ATOM      3  C5'   G A   1      21.975  26.654   6.706  1.00  0.00     0.198 C 
ATOM      4  C4'   G A   1      22.434  27.812   7.559  1.00  0.00     0.180 C 
ATOM      5  O4'   G A   1      21.888  27.635   8.894  1.00  0.00    -0.353 OA
ATOM      6  C1'   G A   1      22.898  27.834   9.861  1.00  0.00     0.262 C 
ATOM      7  N9    G A   1      23.180  26.552  10.500  1.00  0.00    -0.293 N 
ATOM      8  C4    G A   1      24.316  26.217  11.195  1.00  0.00     0.187 A 
ATOM      9  N3    G A   1      25.381  27.019  11.406  1.00  0.00    -0.044 NA
ATOM     10  C2    G A   1      26.320  26.416  12.110  1.00  0.00     0.703 A 
ATOM     11  N2    G A   1      27.448  27.070  12.403  1.00  0.00    -0.233 N 
ATOM     12  H21   G A   1      27.559  28.020  12.078  1.00  0.00     0.174 HD
ATOM     13  H22   G A   1      28.185  26.623  12.929  1.00  0.00     0.174 HD
ATOM     14  N1    G A   1      26.226  25.129  12.575  1.00  0.00    -0.153 N 
ATOM     15  H1    G A   1      27.000  24.760  13.106  1.00  0.00     0.187 HD
ATOM     16  C6    G A   1      25.140  24.284  12.373  1.00  0.00     0.292 A 
ATOM     17  O6    G A   1      25.158  23.139  12.839  1.00  0.00    -0.265 OA
ATOM     18  C5    G A   1      24.121  24.919  11.614  1.00  0.00     0.173 A 
ATOM     19  N7    G A   1      22.887  24.444  11.188  1.00  0.00    -0.234 NA
ATOM     20  C8    G A   1      22.368  25.445  10.531  1.00  0.00     0.214 A 
ATOM     21  C2'   G A   1      24.101  28.460   9.158  1.00  0.00     0.199 C 
ATOM     22  O2'   G A   1      23.963  29.867   9.184  1.00  0.00    -0.388 OA
ATOM     23 'HO2   G A   1      24.118  30.171   8.289  1.00  0.00     0.210 HD
ATOM     24  C3'   G A   1      23.945  27.926   7.736  1.00  0.00     0.198 C 
ATOM     25  O3'   G A   1      24.511  28.821   6.778  1.00  0.00    -0.279 OA
ATOM     26  P     G A   2      25.330  28.242   5.520  1.00  0.00     0.408 P 
ATOM     27  OP1   G A   2      25.377  29.320   4.500  1.00  0.00    -0.624 OA
ATOM     28  OP2   G A   2      24.763  26.916   5.161  1.00  0.00    -0.624 OA
ATOM     29  O5'   G A   2      26.804  28.026   6.085  1.00  0.00    -0.287 OA
ATOM     30  C5'   G A   2      27.042  27.184   7.210  1.00  0.00     0.216 C 
ATOM     31  C4'   G A   2      28.493  26.767   7.255  1.00  0.00     0.180 C 
ATOM     32  O4'   G A   2      28.792  26.341   8.612  1.00  0.00    -0.353 OA
ATOM     33  C1'   G A   2      29.077  24.963   8.614  1.00  0.00     0.262 C 
ATOM     34  N9    G A   2      27.845  24.235   8.901  1.00  0.00    -0.293 N 
ATOM     35  C4    G A   2      27.683  22.871   8.906  1.00  0.00     0.187 A 
ATOM     36  N3    G A   2      28.647  21.958   8.668  1.00  0.00    -0.044 NA
ATOM     37  C2    G A   2      28.183  20.724   8.731  1.00  0.00     0.703 A 
ATOM     38  N2    G A   2      29.009  19.696   8.520  1.00  0.00    -0.233 N 
ATOM     39  H21   G A   2      29.979  19.886   8.313  1.00  0.00     0.174 HD
ATOM     40  H22   G A   2      28.668  18.748   8.570  1.00  0.00     0.174 HD
ATOM     41  N1    G A   2      26.878  20.408   9.009  1.00  0.00    -0.153 N 
ATOM     42  H1    G A   2      26.617  19.433   9.028  1.00  0.00     0.187 HD
ATOM     43  C6    G A   2      25.872  21.332   9.269  1.00  0.00     0.292 A 
ATOM     44  O6    G A   2      24.730  20.941   9.526  1.00  0.00    -0.265 OA
ATOM     45  C5    G A   2      26.354  22.661   9.196  1.00  0.00     0.173 A 
ATOM     46  N7    G A   2      25.693  23.868   9.381  1.00  0.00    -0.234 NA
ATOM     47  C8    G A   2      26.617  24.769   9.203  1.00  0.00     0.214 A 
ATOM     48  C2'   G A   2      29.673  24.662   7.243  1.00  0.00     0.199 C 
ATOM     49  O2'   G A   2      31.039  25.030   7.252  1.00  0.00    -0.388 OA
ATOM     50 'HO2   G A   2      31.180  25.575   6.477  1.00  0.00     0.210 HD
ATOM     51  C3'   G A   2      28.854  25.589   6.346  1.00  0.00     0.198 C 
ATOM     52  O3'   G A   2      29.605  26.026   5.216  1.00  0.00    -0.279 OA
ATOM     53  P     G A   3      28.925  26.042   3.758  1.00  0.00     0.408 P 
ATOM     54  OP1   G A   3      29.980  26.435   2.788  1.00  0.00    -0.624 OA
ATOM     55  OP2   G A   3      27.667  26.829   3.827  1.00  0.00    -0.624 OA
ATOM     56  O5'   G A   3      28.543  24.518   3.491  1.00  0.00    -0.287 OA
ATOM     57  C5'   G A   3      28.895  23.872   2.267  1.00  0.00     0.216 C 
ATOM     58  C4'   G A   3      30.259  23.232   2.386  1.00  0.00     0.180 C 
ATOM     59  O4'   G A   3      30.434  22.755   3.748  1.00  0.00    -0.353 OA
ATOM     60  C1'   G A   3      30.976  21.448   3.737  1.00  0.00     0.262 C 
ATOM     61  N9    G A   3      29.957  20.523   4.222  1.00  0.00    -0.293 N 
ATOM     62  C4    G A   3      30.173  19.267   4.738  1.00  0.00     0.187 A 
ATOM     63  N3    G A   3      31.371  18.666   4.887  1.00  0.00    -0.044 NA
ATOM     64  C2    G A   3      31.256  17.460   5.413  1.00  0.00     0.703 A 
ATOM     65  N2    G A   3      32.349  16.724   5.627  1.00  0.00    -0.233 N 
ATOM     66  H21   G A   3      33.250  17.105   5.379  1.00  0.00     0.174 HD
ATOM     67  H22   G A   3      32.277  15.799   6.023  1.00  0.00     0.174 HD
ATOM     68  N1    G A   3      30.061  16.887   5.768  1.00  0.00    -0.153 N 
ATOM     69  H1    G A   3      30.085  15.960   6.163  1.00  0.00     0.187 HD
ATOM     70  C6    G A   3      28.815  17.486   5.624  1.00  0.00     0.292 A 
ATOM     71  O6    G A   3      27.797  16.881   5.976  1.00  0.00    -0.265 OA
ATOM     72  C5    G A   3      28.922  18.783   5.059  1.00  0.00     0.173 A 
ATOM     73  N7    G A   3      27.939  19.714   4.750  1.00  0.00    -0.234 NA
ATOM     74  C8    G A   3      28.598  20.727   4.258  1.00  0.00     0.214 A 
ATOM     75  C2'   G A   3      31.444  21.159   2.312  1.00  0.00     0.199 C 
ATOM     76  O2'   G A   3      32.778  21.613   2.169  1.00  0.00    -0.388 OA
ATOM     77 'HO2   G A   3      32.754  22.389   1.609  1.00  0.00     0.210 HD
ATOM     78  C3'   G A   3      30.474  22.011   1.501  1.00  0.00     0.198 C 
ATOM     79  O3'   G A   3      31.011  22.376   0.234  1.00  0.00    -0.279 OA
ATOM     80  P     C A   4      30.946  21.335  -0.991  1.00  0.00     0.408 P 
ATOM     81  OP1   C A   4      32.344  21.019  -1.381  1.00  0.00    -0.624 OA
ATOM     82  OP2   C A   4      30.008  21.882  -2.001  1.00  0.00    -0.624 OA
ATOM     83  O5'   C A   4      30.282  20.034  -0.353  1.00  0.00    -0.287 OA
ATOM     84  C5'   C A   4      30.716  18.724  -0.720  1.00  0.00     0.216 C 
ATOM     85  C4'   C A   4      29.537  17.893  -1.171  1.00  0.00     0.180 C 
ATOM     86  O4'   C A   4      28.463  18.024  -0.203  1.00  0.00    -0.353 OA
ATOM     87  C1'   C A   4      27.213  17.961  -0.870  1.00  0.00     0.264 C 
ATOM     88  N1    C A   4      26.455  19.182  -0.553  1.00  0.00    -0.278 N 
ATOM     89  C6    C A   4      27.080  20.396  -0.478  1.00  0.00     0.102 A 
ATOM     90  C2    C A   4      25.078  19.084  -0.334  1.00  0.00     0.352 A 
ATOM     91  O2    C A   4      24.535  17.971  -0.403  1.00  0.00    -0.244 OA
ATOM     92  N3    C A   4      24.371  20.201  -0.054  1.00  0.00    -0.177 NA
ATOM     93  C4    C A   4      24.989  21.382   0.012  1.00  0.00     0.128 A 
ATOM     94  N4    C A   4      24.250  22.455   0.288  1.00  0.00    -0.384 N 
ATOM     95  H41   C A   4      24.679  23.366   0.348  1.00  0.00     0.157 HD
ATOM     96  H42   C A   4      23.257  22.350   0.446  1.00  0.00     0.157 HD
ATOM     97  C5    C A   4      26.393  21.512  -0.203  1.00  0.00     0.067 A 
ATOM     98  C2'   C A   4      27.482  17.784  -2.366  1.00  0.00     0.199 C 
ATOM     99  O2'   C A   4      27.429  16.406  -2.679  1.00  0.00    -0.388 OA
ATOM    100 'HO2   C A   4      27.720  16.319  -3.587  1.00  0.00     0.210 HD
ATOM    101  C3'   C A   4      28.905  18.321  -2.488  1.00  0.00     0.198 C 
ATOM    102  O3'   C A   4      29.603  17.771  -3.602  1.00  0.00    -0.279 OA
ATOM    103  P     A A   5      29.996  18.711  -4.848  1.00  0.00     0.408 P 
ATOM    104  OP1   A A   5      31.233  18.148  -5.448  1.00  0.00    -0.624 OA
ATOM    105  OP2   A A   5      29.976  20.128  -4.407  1.00  0.00    -0.624 OA
ATOM    106  O5'   A A   5      28.803  18.498  -5.884  1.00  0.00    -0.287 OA
ATOM    107  C5'   A A   5      28.700  17.302  -6.656  1.00  0.00     0.216 C 
ATOM    108  C4'   A A   5      27.260  17.046  -7.033  1.00  0.00     0.180 C 
ATOM    109  O4'   A A   5      26.433  17.158  -5.842  1.00  0.00    -0.353 OA
ATOM    110  C1'   A A   5      25.215  17.808  -6.162  1.00  0.00     0.262 C 
ATOM    111  N9    A A   5      25.158  19.069  -5.421  1.00  0.00    -0.294 N 
ATOM    112  C4    A A   5      24.021  19.715  -5.001  1.00  0.00     0.167 A 
ATOM    113  N3    A A   5      22.748  19.327  -5.186  1.00  0.00    -0.222 NA
ATOM    114  C2    A A   5      21.907  20.201  -4.640  1.00  0.00     0.237 A 
ATOM    115  N1    A A   5      22.174  21.336  -3.980  1.00  0.00    -0.222 NA
ATOM    116  C6    A A   5      23.464  21.699  -3.814  1.00  0.00     0.155 A 
ATOM    117  N6    A A   5      23.728  22.830  -3.159  1.00  0.00    -0.382 N 
ATOM    118  H61   A A   5      24.684  23.122  -3.025  1.00  0.00     0.157 HD
ATOM    119  H62   A A   5      22.968  23.392  -2.800  1.00  0.00     0.157 HD
ATOM    120  C5    A A   5      24.455  20.854  -4.347  1.00  0.00     0.149 A 
ATOM    121  N7    A A   5      25.840  20.925  -4.354  1.00  0.00    -0.236 NA
ATOM    122  C8    A A   5      26.209  19.846  -5.002  1.00  0.00     0.214 A 
ATOM    123  C2'   A A   5      25.170  17.983  -7.679  1.00  0.00     0.199 C 
ATOM    124  O2'   A A   5      24.558  16.841  -8.249  1.00  0.00    -0.388 OA
ATOM    125 'HO2   A A   5      25.009  16.662  -9.075  1.00  0.00     0.210 HD
ATOM    126  C3'   A A   5      26.656  18.038  -8.018  1.00  0.00     0.198 C 
ATOM    127  O3'   A A   5      26.918  17.662  -9.368  1.00  0.00    -0.279 OA
ATOM    128  P     U A   6      26.973  18.788 -10.516  1.00  0.00     0.408 P 
ATOM    129  OP1   U A   6      27.439  18.128 -11.763  1.00  0.00    -0.624 OA
ATOM    130  OP2   U A   6      27.710  19.964  -9.989  1.00  0.00    -0.624 OA
ATOM    131  O5'   U A   6      25.449  19.210 -10.716  1.00  0.00    -0.287 OA
ATOM    132  C5'   U A   6      24.530  18.354 -11.393  1.00  0.00     0.216 C 
ATOM    133  C4'   U A   6      23.256  19.102 -11.710  1.00  0.00     0.180 C 
ATOM    134  O4'   U A   6      22.532  19.342 -10.471  1.00  0.00    -0.353 OA
ATOM    135  C1'   U A   6      21.970  20.642 -10.489  1.00  0.00     0.264 C 
ATOM    136  N1    U A   6      22.614  21.440  -9.436  1.00  0.00    -0.280 N 
ATOM    137  C6    U A   6      23.945  21.271  -9.125  1.00  0.00     0.104 A 
ATOM    138  C2    U A   6      21.840  22.371  -8.767  1.00  0.00     0.331 A 
ATOM    139  O2    U A   6      20.660  22.551  -9.011  1.00  0.00    -0.246 OA
ATOM    140  N3    U A   6      22.497  23.083  -7.799  1.00  0.00    -0.275 N 
ATOM    141  H3    U A   6      21.954  23.769  -7.300  1.00  0.00     0.173 HD
ATOM    142  C4    U A   6      23.819  22.965  -7.436  1.00  0.00     0.250 A 
ATOM    143  O4    U A   6      24.262  23.672  -6.532  1.00  0.00    -0.268 OA
ATOM    144  C5    U A   6      24.552  21.985  -8.173  1.00  0.00     0.092 A 
ATOM    145  C2'   U A   6      22.173  21.208 -11.893  1.00  0.00     0.199 C 
ATOM    146  O2'   U A   6      21.069  20.834 -12.697  1.00  0.00    -0.388 OA
ATOM    147 'HO2   U A   6      20.870  21.586 -13.256  1.00  0.00     0.210 HD
ATOM    148  C3'   U A   6      23.444  20.485 -12.318  1.00  0.00     0.198 C 
ATOM    149  O3'   U A   6      23.588  20.423 -13.734  1.00  0.00    -0.279 OA
ATOM    150  P     G A   7      24.415  21.568 -14.504  1.00  0.00     0.408 P 
ATOM    151  OP1   G A   7      24.346  21.268 -15.957  1.00  0.00    -0.624 OA
ATOM    152  OP2   G A   7      25.740  21.707 -13.846  1.00  0.00    -0.624 OA
ATOM    153  O5'   G A   7      23.580  22.899 -14.229  1.00  0.00    -0.287 OA
ATOM    154  C5'   G A   7      22.527  23.302 -15.104  1.00  0.00     0.216 C 
ATOM    155  C4'   G A   7      21.557  24.206 -14.376  1.00  0.00     0.180 C 
ATOM    156  O4'   G A   7      21.518  23.828 -12.974  1.00  0.00    -0.353 OA
ATOM    157  C1'   G A   7      21.400  24.986 -12.168  1.00  0.00     0.262 C 
ATOM    158  N9    G A   7      22.566  25.057 -11.292  1.00  0.00    -0.293 N 
ATOM    159  C4    G A   7      22.708  25.861 -10.187  1.00  0.00     0.187 A 
ATOM    160  N3    G A   7      21.791  26.732  -9.716  1.00  0.00    -0.044 NA
ATOM    161  C2    G A   7      22.218  27.362  -8.637  1.00  0.00     0.703 A 
ATOM    162  N2    G A   7      21.431  28.262  -8.042  1.00  0.00    -0.233 N 
ATOM    163  H21   G A   7      20.516  28.448  -8.428  1.00  0.00     0.174 HD
ATOM    164  H22   G A   7      21.745  28.754  -7.218  1.00  0.00     0.174 HD
ATOM    165  N1    G A   7      23.446  27.157  -8.063  1.00  0.00    -0.153 N 
ATOM    166  H1    G A   7      23.679  27.690  -7.241  1.00  0.00     0.187 HD
ATOM    167  C6    G A   7      24.406  26.265  -8.528  1.00  0.00     0.292 A 
ATOM    168  O6    G A   7      25.483  26.158  -7.931  1.00  0.00    -0.265 OA
ATOM    169  C5    G A   7      23.963  25.579  -9.690  1.00  0.00     0.173 A 
ATOM    170  N7    G A   7      24.597  24.619 -10.465  1.00  0.00    -0.234 NA
ATOM    171  C8    G A   7      23.733  24.341 -11.403  1.00  0.00     0.214 A 
ATOM    172  C2'   G A   7      21.253  26.193 -13.097  1.00  0.00     0.199 C 
ATOM    173  O2'   G A   7      19.875  26.434 -13.310  1.00  0.00    -0.388 OA
ATOM    174 'HO2   G A   7      19.724  26.354 -14.251  1.00  0.00     0.210 HD
ATOM    175  C3'   G A   7      21.925  25.684 -14.368  1.00  0.00     0.198 C 
ATOM    176  O3'   G A   7      21.443  26.338 -15.539  1.00  0.00    -0.279 OA
ATOM    177  P     U A   8      22.153  27.684 -16.056  1.00  0.00     0.408 P 
ATOM    178  OP1   U A   8      21.511  28.055 -17.342  1.00  0.00    -0.624 OA
ATOM    179  OP2   U A   8      23.626  27.495 -16.000  1.00  0.00    -0.624 OA
ATOM    180  O5'   U A   8      21.751  28.775 -14.966  1.00  0.00    -0.287 OA
ATOM    181  C5'   U A   8      20.385  29.123 -14.745  1.00  0.00     0.216 C 
ATOM    182  C4'   U A   8      20.292  30.496 -14.120  1.00  0.00     0.180 C 
ATOM    183  O4'   U A   8      20.275  30.348 -12.673  1.00  0.00    -0.353 OA
ATOM    184  C1'   U A   8      21.087  31.344 -12.078  1.00  0.00     0.264 C 
ATOM    185  N1    U A   8      22.228  30.681 -11.430  1.00  0.00    -0.280 N 
ATOM    186  C6    U A   8      22.772  29.529 -11.948  1.00  0.00     0.104 A 
ATOM    187  C2    U A   8      22.738  31.255 -10.278  1.00  0.00     0.331 A 
ATOM    188  O2    U A   8      22.283  32.271  -9.787  1.00  0.00    -0.246 OA
ATOM    189  N3    U A   8      23.801  30.591  -9.723  1.00  0.00    -0.275 N 
ATOM    190  H3    U A   8      24.189  30.992  -8.882  1.00  0.00     0.173 HD
ATOM    191  C4    U A   8      24.394  29.439 -10.188  1.00  0.00     0.250 A 
ATOM    192  O4    U A   8      25.350  28.964  -9.578  1.00  0.00    -0.268 OA
ATOM    193  C5    U A   8      23.808  28.907 -11.378  1.00  0.00     0.092 A 
ATOM    194  C2'   U A   8      21.488  32.327 -13.178  1.00  0.00     0.199 C 
ATOM    195  O2'   U A   8      20.499  33.335 -13.269  1.00  0.00    -0.388 OA
ATOM    196 'HO2   U A   8      20.260  33.404 -14.194  1.00  0.00     0.210 HD
ATOM    197  C3'   U A   8      21.466  31.424 -14.406  1.00  0.00     0.198 C 
ATOM    198  O3'   U A   8      21.272  32.157 -15.612  1.00  0.00    -0.279 OA
ATOM    199  P     G A   9      22.447  32.215 -16.711  1.00  0.00     0.408 P 
ATOM    200  OP1   G A   9      22.080  31.277 -17.800  1.00  0.00    -0.624 OA
ATOM    201  OP2   G A   9      23.751  32.058 -16.015  1.00  0.00    -0.624 OA
ATOM    202  O5'   G A   9      22.369  33.699 -17.289  1.00  0.00    -0.287 OA
ATOM    203  C5'   G A   9      21.464  34.658 -16.741  1.00  0.00     0.216 C 
ATOM    204  C4'   G A   9      22.151  35.997 -16.599  1.00  0.00     0.180 C 
ATOM    205  O4'   G A   9      21.169  36.970 -16.143  1.00  0.00    -0.353 OA
ATOM    206  C1'   G A   9      21.596  37.542 -14.925  1.00  0.00     0.262 C 
ATOM    207  N9    G A   9      20.423  37.779 -14.089  1.00  0.00    -0.293 N 
ATOM    208  C4    G A   9      19.250  38.379 -14.476  1.00  0.00     0.187 A 
ATOM    209  N3    G A   9      18.972  38.861 -15.706  1.00  0.00    -0.044 NA
ATOM    210  C2    G A   9      17.761  39.382 -15.769  1.00  0.00     0.703 A 
ATOM    211  N2    G A   9      17.324  39.904 -16.917  1.00  0.00    -0.233 N 
ATOM    212  H21   G A   9      17.933  39.890 -17.723  1.00  0.00     0.174 HD
ATOM    213  H22   G A   9      16.402  40.307 -16.982  1.00  0.00     0.174 HD
ATOM    214  N1    G A   9      16.888  39.429 -14.713  1.00  0.00    -0.153 N 
ATOM    215  H1    G A   9      15.985  39.850 -14.861  1.00  0.00     0.187 HD
ATOM    216  C6    G A   9      17.151  38.943 -13.438  1.00  0.00     0.292 A 
ATOM    217  O6    G A   9      16.292  39.039 -12.554  1.00  0.00    -0.265 OA
ATOM    218  C5    G A   9      18.449  38.378 -13.352  1.00  0.00     0.173 A 
ATOM    219  N7    G A   9      19.105  37.787 -12.280  1.00  0.00    -0.234 NA
ATOM    220  C8    G A   9      20.269  37.448 -12.765  1.00  0.00     0.214 A 
ATOM    221  C2'   G A   9      22.609  36.574 -14.322  1.00  0.00     0.199 C 
ATOM    222  O2'   G A   9      23.510  37.314 -13.519  1.00  0.00    -0.388 OA
ATOM    223 'HO2   G A   9      24.336  36.829 -13.484  1.00  0.00     0.210 HD
ATOM    224  C3'   G A   9      23.286  36.035 -15.580  1.00  0.00     0.198 C 
ATOM    225  O3'   G A   9      24.350  36.869 -16.028  1.00  0.00    -0.279 OA
ATOM    226  P     G A  10      25.874  36.460 -15.719  1.00  0.00     0.408 P 
ATOM    227  OP1   G A  10      26.740  37.323 -16.564  1.00  0.00    -0.624 OA
ATOM    228  OP2   G A  10      26.000  34.983 -15.814  1.00  0.00    -0.624 OA
ATOM    229  O5'   G A  10      26.083  36.877 -14.196  1.00  0.00    -0.287 OA
ATOM    230  C5'   G A  10      26.487  38.198 -13.845  1.00  0.00     0.216 C 
ATOM    231  C4'   G A  10      26.569  38.340 -12.342  1.00  0.00     0.180 C 
ATOM    232  O4'   G A  10      26.993  37.069 -11.771  1.00  0.00    -0.353 OA
ATOM    233  C1'   G A  10      28.261  37.217 -11.163  1.00  0.00     0.262 C 
ATOM    234  N9    G A  10      29.063  36.039 -11.473  1.00  0.00    -0.293 N 
ATOM    235  C4    G A  10      30.263  35.695 -10.900  1.00  0.00     0.187 A 
ATOM    236  N3    G A  10      30.915  36.393  -9.946  1.00  0.00    -0.044 NA
ATOM    237  C2    G A  10      32.047  35.810  -9.596  1.00  0.00     0.703 A 
ATOM    238  N2    G A  10      32.818  36.368  -8.657  1.00  0.00    -0.233 N 
ATOM    239  H21   G A  10      32.521  37.232  -8.227  1.00  0.00     0.174 HD
ATOM    240  H22   G A  10      33.681  35.927  -8.372  1.00  0.00     0.174 HD
ATOM    241  N1    G A  10      32.506  34.639 -10.136  1.00  0.00    -0.153 N 
ATOM    242  H1    G A  10      33.383  34.274  -9.798  1.00  0.00     0.187 HD
ATOM    243  C6    G A  10      31.856  33.903 -11.120  1.00  0.00     0.292 A 
ATOM    244  O6    G A  10      32.363  32.856 -11.541  1.00  0.00    -0.265 OA
ATOM    245  C5    G A  10      30.635  34.516 -11.508  1.00  0.00     0.173 A 
ATOM    246  N7    G A  10      29.685  34.122 -12.443  1.00  0.00    -0.234 NA
ATOM    247  C8    G A  10      28.775  35.055 -12.387  1.00  0.00     0.214 A 
ATOM    248  C2'   G A  10      28.850  38.522 -11.690  1.00  0.00     0.199 C 
ATOM    249  O2'   G A  10      29.716  39.063 -10.709  1.00  0.00    -0.388 OA
ATOM    250 'HO2   G A  10      30.004  39.918 -11.031  1.00  0.00     0.210 HD
ATOM    251  C3'   G A  10      27.589  39.361 -11.850  1.00  0.00     0.198 C 
ATOM    252  O3'   G A  10      27.170  39.959 -10.626  1.00  0.00    -0.279 OA
ATOM    253  P     U A  11      27.756  41.394 -10.192  1.00  0.00     0.408 P 
ATOM    254  OP1   U A  11      26.592  42.262  -9.879  1.00  0.00    -0.624 OA
ATOM    255  OP2   U A  11      28.745  41.834 -11.211  1.00  0.00    -0.624 OA
ATOM    256  O5'   U A  11      28.534  41.106  -8.832  1.00  0.00    -0.287 OA
ATOM    257  C5'   U A  11      28.528  39.810  -8.235  1.00  0.00     0.216 C 
ATOM    258  C4'   U A  11      29.012  39.892  -6.807  1.00  0.00     0.180 C 
ATOM    259  O4'   U A  11      28.202  40.867  -6.092  1.00  0.00    -0.353 OA
ATOM    260  C1'   U A  11      27.396  40.210  -5.132  1.00  0.00     0.264 C 
ATOM    261  N1    U A  11      26.035  40.758  -5.221  1.00  0.00    -0.280 N 
ATOM    262  C6    U A  11      25.445  41.002  -6.441  1.00  0.00     0.104 A 
ATOM    263  C2    U A  11      25.364  41.023  -4.041  1.00  0.00     0.331 A 
ATOM    264  O2    U A  11      25.852  40.822  -2.943  1.00  0.00    -0.246 OA
ATOM    265  N3    U A  11      24.102  41.533  -4.193  1.00  0.00    -0.275 N 
ATOM    266  H3    U A  11      23.595  41.738  -3.346  1.00  0.00     0.173 HD
ATOM    267  C4    U A  11      23.452  41.799  -5.377  1.00  0.00     0.250 A 
ATOM    268  O4    U A  11      22.311  42.259  -5.350  1.00  0.00    -0.268 OA
ATOM    269  C5    U A  11      24.210  41.500  -6.551  1.00  0.00     0.092 A 
ATOM    270  C2'   U A  11      27.481  38.712  -5.417  1.00  0.00     0.199 C 
ATOM    271  O2'   U A  11      27.382  38.011  -4.192  1.00  0.00    -0.388 OA
ATOM    272 'HO2   U A  11      28.246  37.642  -4.006  1.00  0.00     0.210 HD
ATOM    273  C3'   U A  11      28.882  38.603  -6.006  1.00  0.00     0.198 C 
ATOM    274  O3'   U A  11      29.886  38.512  -4.998  1.00  0.00    -0.279 OA
ATOM    275  P     G A  12      31.284  37.788  -5.325  1.00  0.00     0.408 P 
ATOM    276  OP1   G A  12      32.087  37.783  -4.076  1.00  0.00    -0.624 OA
ATOM    277  OP2   G A  12      31.853  38.387  -6.560  1.00  0.00    -0.624 OA
ATOM    278  O5'   G A  12      30.872  36.284  -5.653  1.00  0.00    -0.287 OA
ATOM    279  C5'   G A  12      30.233  35.463  -4.676  1.00  0.00     0.216 C 
ATOM    280  C4'   G A  12      30.297  34.011  -5.092  1.00  0.00     0.180 C 
ATOM    281  O4'   G A  12      29.037  33.666  -5.736  1.00  0.00    -0.353 OA
ATOM    282  C1'   G A  12      29.284  33.190  -7.041  1.00  0.00     0.262 C 
ATOM    283  N9    G A  12      28.199  33.631  -7.912  1.00  0.00    -0.293 N 
ATOM    284  C4    G A  12      27.865  33.095  -9.130  1.00  0.00     0.187 A 
ATOM    285  N3    G A  12      28.485  32.061  -9.735  1.00  0.00    -0.044 NA
ATOM    286  C2    G A  12      27.938  31.772 -10.902  1.00  0.00     0.703 A 
ATOM    287  N2    G A  12      28.436  30.775 -11.637  1.00  0.00    -0.233 N 
ATOM    288  H21   G A  12      29.227  30.257 -11.281  1.00  0.00     0.174 HD
ATOM    289  H22   G A  12      28.037  30.549 -12.535  1.00  0.00     0.174 HD
ATOM    290  N1    G A  12      26.865  32.440 -11.433  1.00  0.00    -0.153 N 
ATOM    291  H1    G A  12      26.519  32.144 -12.332  1.00  0.00     0.187 HD
ATOM    292  C6    G A  12      26.208  33.506 -10.827  1.00  0.00     0.292 A 
ATOM    293  O6    G A  12      25.245  34.033 -11.394  1.00  0.00    -0.265 OA
ATOM    294  C5    G A  12      26.787  33.832  -9.572  1.00  0.00     0.173 A 
ATOM    295  N7    G A  12      26.450  34.814  -8.650  1.00  0.00    -0.234 NA
ATOM    296  C8    G A  12      27.312  34.656  -7.684  1.00  0.00     0.214 A 
ATOM    297  C2'   G A  12      30.657  33.722  -7.440  1.00  0.00     0.199 C 
ATOM    298  O2'   G A  12      31.240  32.832  -8.374  1.00  0.00    -0.388 OA
ATOM    299 'HO2   G A  12      31.450  32.030  -7.895  1.00  0.00     0.210 HD
ATOM    300  C3'   G A  12      31.389  33.673  -6.105  1.00  0.00     0.198 C 
ATOM    301  O3'   G A  12      31.958  32.388  -5.854  1.00  0.00    -0.279 OA
ATOM    302  P     U A  13      33.263  32.258  -4.924  1.00  0.00     0.408 P 
ATOM    303  OP1   U A  13      34.084  33.482  -5.114  1.00  0.00    -0.624 OA
ATOM    304  OP2   U A  13      33.870  30.925  -5.170  1.00  0.00    -0.624 OA
ATOM    305  O5'   U A  13      32.683  32.281  -3.440  1.00  0.00    -0.287 OA
ATOM    306  C5'   U A  13      32.183  31.093  -2.827  1.00  0.00     0.216 C 
ATOM    307  C4'   U A  13      31.921  31.334  -1.358  1.00  0.00     0.180 C 
ATOM    308  O4'   U A  13      33.166  31.745  -0.726  1.00  0.00    -0.353 OA
ATOM    309  C1'   U A  13      33.046  33.071  -0.248  1.00  0.00     0.264 C 
ATOM    310  N1    U A  13      34.295  33.786  -0.548  1.00  0.00    -0.280 N 
ATOM    311  C6    U A  13      34.920  33.648  -1.766  1.00  0.00     0.104 A 
ATOM    312  C2    U A  13      34.822  34.604   0.435  1.00  0.00     0.331 A 
ATOM    313  O2    U A  13      34.300  34.750   1.525  1.00  0.00    -0.246 OA
ATOM    314  N3    U A  13      35.984  35.245   0.092  1.00  0.00    -0.275 N 
ATOM    315  H3    U A  13      36.383  35.851   0.793  1.00  0.00     0.173 HD
ATOM    316  C4    U A  13      36.661  35.154  -1.103  1.00  0.00     0.250 A 
ATOM    317  O4    U A  13      37.700  35.795  -1.259  1.00  0.00    -0.268 OA
ATOM    318  C5    U A  13      36.054  34.288  -2.065  1.00  0.00     0.092 A 
ATOM    319  C2'   U A  13      31.813  33.674  -0.916  1.00  0.00     0.199 C 
ATOM    320  O2'   U A  13      31.243  34.629  -0.041  1.00  0.00    -0.388 OA
ATOM    321 'HO2   U A  13      30.557  34.176   0.453  1.00  0.00     0.210 HD
ATOM    322  C3'   U A  13      30.922  32.444  -1.049  1.00  0.00     0.198 C 
ATOM    323  O3'   U A  13      30.196  32.172   0.146  1.00  0.00    -0.279 OA
ATOM    324  P     A A  14      28.796  31.384   0.069  1.00  0.00     0.408 P 
ATOM    325  OP1   A A  14      28.326  31.178   1.462  1.00  0.00    -0.624 OA
ATOM    326  OP2   A A  14      28.959  30.214  -0.831  1.00  0.00    -0.624 OA
ATOM    327  O5'   A A  14      27.810  32.418  -0.636  1.00  0.00    -0.287 OA
ATOM    328  C5'   A A  14      27.791  33.792  -0.254  1.00  0.00     0.216 C 
ATOM    329  C4'   A A  14      26.800  34.554  -1.101  1.00  0.00     0.180 C 
ATOM    330  O4'   A A  14      27.311  34.628  -2.459  1.00  0.00    -0.353 OA
ATOM    331  C1'   A A  14      26.252  34.443  -3.381  1.00  0.00     0.262 C 
ATOM    332  N9    A A  14      26.517  33.225  -4.146  1.00  0.00    -0.294 N 
ATOM    333  C4    A A  14      25.901  32.851  -5.315  1.00  0.00     0.167 A 
ATOM    334  N3    A A  14      24.940  33.516  -5.978  1.00  0.00    -0.222 NA
ATOM    335  C2    A A  14      24.583  32.853  -7.076  1.00  0.00     0.237 A 
ATOM    336  N1    A A  14      25.045  31.688  -7.549  1.00  0.00    -0.222 NA
ATOM    337  C6    A A  14      26.011  31.046  -6.858  1.00  0.00     0.155 A 
ATOM    338  N6    A A  14      26.470  29.888  -7.331  1.00  0.00    -0.382 N 
ATOM    339  H61   A A  14      27.193  29.392  -6.830  1.00  0.00     0.157 HD
ATOM    340  H62   A A  14      26.096  29.507  -8.190  1.00  0.00     0.157 HD
ATOM    341  C5    A A  14      26.474  31.645  -5.674  1.00  0.00     0.149 A 
ATOM    342  N7    A A  14      27.433  31.261  -4.745  1.00  0.00    -0.236 NA
ATOM    343  C8    A A  14      27.419  32.228  -3.861  1.00  0.00     0.214 A 
ATOM    344  C2'   A A  14      24.945  34.403  -2.589  1.00  0.00     0.199 C 
ATOM    345  O2'   A A  14      24.432  35.719  -2.498  1.00  0.00    -0.388 OA
ATOM    346 'HO2   A A  14      24.340  35.914  -1.566  1.00  0.00     0.210 HD
ATOM    347  C3'   A A  14      25.427  33.908  -1.230  1.00  0.00     0.198 C 
ATOM    348  O3'   A A  14      24.566  34.313  -0.167  1.00  0.00    -0.279 OA
ATOM    349  P     G A  15      23.323  33.384   0.254  1.00  0.00     0.408 P 
ATOM    350  OP1   G A  15      22.505  34.158   1.223  1.00  0.00    -0.624 OA
ATOM    351  OP2   G A  15      23.844  32.047   0.639  1.00  0.00    -0.624 OA
ATOM    352  O5'   G A  15      22.484  33.225  -1.091  1.00  0.00    -0.287 OA
ATOM    353  C5'   G A  15      21.851  34.351  -1.700  1.00  0.00     0.216 C 
ATOM    354  C4'   G A  15      20.758  33.894  -2.639  1.00  0.00     0.180 C 
ATOM    355  O4'   G A  15      21.302  33.734  -3.974  1.00  0.00    -0.353 OA
ATOM    356  C1'   G A  15      20.588  32.717  -4.656  1.00  0.00     0.262 C 
ATOM    357  N9    G A  15      21.543  31.726  -5.142  1.00  0.00    -0.293 N 
ATOM    358  C4    G A  15      22.407  30.976  -4.379  1.00  0.00     0.187 A 
ATOM    359  N3    G A  15      22.528  31.025  -3.036  1.00  0.00    -0.044 NA
ATOM    360  C2    G A  15      23.444  30.184  -2.592  1.00  0.00     0.703 A 
ATOM    361  N2    G A  15      23.690  30.103  -1.284  1.00  0.00    -0.233 N 
ATOM    362  H21   G A  15      23.169  30.691  -0.649  1.00  0.00     0.174 HD
ATOM    363  H22   G A  15      24.390  29.470  -0.928  1.00  0.00     0.174 HD
ATOM    364  N1    G A  15      24.184  29.358  -3.399  1.00  0.00    -0.153 N 
ATOM    365  H1    G A  15      24.861  28.756  -2.957  1.00  0.00     0.187 HD
ATOM    366  C6    G A  15      24.075  29.287  -4.782  1.00  0.00     0.292 A 
ATOM    367  O6    G A  15      24.790  28.501  -5.413  1.00  0.00    -0.265 OA
ATOM    368  C5    G A  15      23.095  30.186  -5.276  1.00  0.00     0.173 A 
ATOM    369  N7    G A  15      22.674  30.435  -6.577  1.00  0.00    -0.234 NA
ATOM    370  C8    G A  15      21.757  31.354  -6.446  1.00  0.00     0.214 A 
ATOM    371  C2'   G A  15      19.552  32.143  -3.686  1.00  0.00     0.199 C 
ATOM    372  O2'   G A  15      18.318  32.802  -3.904  1.00  0.00    -0.388 OA
ATOM    373 'HO2   G A  15      18.042  33.152  -3.056  1.00  0.00     0.210 HD
ATOM    374  C3'   G A  15      20.152  32.532  -2.339  1.00  0.00     0.198 C 
ATOM    375  O3'   G A  15      19.176  32.601  -1.305  1.00  0.00    -0.279 OA
ATOM    376  P     A A  16      18.862  31.300  -0.415  1.00  0.00     0.408 P 
ATOM    377  OP1   A A  16      17.859  31.694   0.607  1.00  0.00    -0.624 OA
ATOM    378  OP2   A A  16      20.152  30.701   0.017  1.00  0.00    -0.624 OA
ATOM    379  O5'   A A  16      18.160  30.296  -1.435  1.00  0.00    -0.287 OA
ATOM    380  C5'   A A  16      16.985  30.679  -2.147  1.00  0.00     0.216 C 
ATOM    381  C4'   A A  16      16.552  29.567  -3.074  1.00  0.00     0.180 C 
ATOM    382  O4'   A A  16      17.489  29.470  -4.176  1.00  0.00    -0.353 OA
ATOM    383  C1'   A A  16      17.600  28.120  -4.589  1.00  0.00     0.262 C 
ATOM    384  N9    A A  16      19.006  27.728  -4.510  1.00  0.00    -0.294 N 
ATOM    385  C4    A A  16      19.617  26.758  -5.267  1.00  0.00     0.167 A 
ATOM    386  N3    A A  16      19.055  25.991  -6.216  1.00  0.00    -0.222 NA
ATOM    387  C2    A A  16      19.951  25.160  -6.740  1.00  0.00     0.237 A 
ATOM    388  N1    A A  16      21.250  25.020  -6.445  1.00  0.00    -0.222 NA
ATOM    389  C6    A A  16      21.784  25.808  -5.488  1.00  0.00     0.155 A 
ATOM    390  N6    A A  16      23.078  25.670  -5.198  1.00  0.00    -0.382 N 
ATOM    391  H61   A A  16      23.503  26.247  -4.487  1.00  0.00     0.157 HD
ATOM    392  H62   A A  16      23.634  24.985  -5.693  1.00  0.00     0.157 HD
ATOM    393  C5    A A  16      20.936  26.733  -4.854  1.00  0.00     0.149 A 
ATOM    394  N7    A A  16      21.155  27.669  -3.854  1.00  0.00    -0.236 NA
ATOM    395  C8    A A  16      19.982  28.231  -3.686  1.00  0.00     0.214 A 
ATOM    396  C2'   A A  16      16.678  27.280  -3.700  1.00  0.00     0.199 C 
ATOM    397  O2'   A A  16      15.433  27.133  -4.358  1.00  0.00    -0.388 OA
ATOM    398 'HO2   A A  16      14.760  27.429  -3.746  1.00  0.00     0.210 HD
ATOM    399  C3'   A A  16      16.550  28.171  -2.471  1.00  0.00     0.198 C 
ATOM    400  O3'   A A  16      15.354  27.923  -1.736  1.00  0.00    -0.279 OA
ATOM    401  P     U A  17      15.389  26.956  -0.451  1.00  0.00     0.408 P 
ATOM    402  OP1   U A  17      14.116  27.158   0.286  1.00  0.00    -0.624 OA
ATOM    403  OP2   U A  17      16.683  27.148   0.255  1.00  0.00    -0.624 OA
ATOM    404  O5'   U A  17      15.375  25.489  -1.073  1.00  0.00    -0.287 OA
ATOM    405  C5'   U A  17      14.306  25.058  -1.913  1.00  0.00     0.216 C 
ATOM    406  C4'   U A  17      14.496  23.607  -2.292  1.00  0.00     0.180 C 
ATOM    407  O4'   U A  17      15.526  23.524  -3.313  1.00  0.00    -0.353 OA
ATOM    408  C1'   U A  17      16.356  22.404  -3.070  1.00  0.00     0.264 C 
ATOM    409  N1    U A  17      17.717  22.889  -2.803  1.00  0.00    -0.280 N 
ATOM    410  C6    U A  17      17.935  24.048  -2.090  1.00  0.00     0.104 A 
ATOM    411  C2    U A  17      18.776  22.146  -3.292  1.00  0.00     0.331 A 
ATOM    412  O2    U A  17      18.625  21.115  -3.925  1.00  0.00    -0.246 OA
ATOM    413  N3    U A  17      20.018  22.652  -3.014  1.00  0.00    -0.275 N 
ATOM    414  H3    U A  17      20.806  22.124  -3.359  1.00  0.00     0.173 HD
ATOM    415  C4    U A  17      20.309  23.799  -2.311  1.00  0.00     0.250 A 
ATOM    416  O4    U A  17      21.484  24.128  -2.152  1.00  0.00    -0.268 OA
ATOM    417  C5    U A  17      19.163  24.512  -1.837  1.00  0.00     0.092 A 
ATOM    418  C2'   U A  17      15.743  21.611  -1.915  1.00  0.00     0.199 C 
ATOM    419  O2'   U A  17      14.862  20.641  -2.449  1.00  0.00    -0.388 OA
ATOM    420 'HO2   U A  17      14.774  19.948  -1.793  1.00  0.00     0.210 HD
ATOM    421  C3'   U A  17      14.981  22.701  -1.168  1.00  0.00     0.198 C 
ATOM    422  O3'   U A  17      13.886  22.185  -0.416  1.00  0.00    -0.279 OA
ATOM    423  P     G A  18      13.976  22.108   1.188  1.00  0.00     0.408 P 
ATOM    424  OP1   G A  18      12.587  22.189   1.709  1.00  0.00    -0.624 OA
ATOM    425  OP2   G A  18      14.994  23.080   1.664  1.00  0.00    -0.624 OA
ATOM    426  O5'   G A  18      14.524  20.638   1.474  1.00  0.00    -0.287 OA
ATOM    427  C5'   G A  18      13.729  19.489   1.192  1.00  0.00     0.216 C 
ATOM    428  C4'   G A  18      14.556  18.233   1.337  1.00  0.00     0.180 C 
ATOM    429  O4'   G A  18      15.609  18.251   0.333  1.00  0.00    -0.353 OA
ATOM    430  C1'   G A  18      16.819  17.780   0.898  1.00  0.00     0.262 C 
ATOM    431  N9    G A  18      17.775  18.883   0.922  1.00  0.00    -0.293 N 
ATOM    432  C4    G A  18      19.132  18.792   0.731  1.00  0.00     0.187 A 
ATOM    433  N3    G A  18      19.824  17.658   0.494  1.00  0.00    -0.044 NA
ATOM    434  C2    G A  18      21.116  17.891   0.352  1.00  0.00     0.703 A 
ATOM    435  N2    G A  18      21.952  16.876   0.119  1.00  0.00    -0.233 N 
ATOM    436  H21   G A  18      21.583  15.938   0.054  1.00  0.00     0.174 HD
ATOM    437  H22   G A  18      22.941  17.043   0.010  1.00  0.00     0.174 HD
ATOM    438  N1    G A  18      21.686  19.136   0.432  1.00  0.00    -0.153 N 
ATOM    439  H1    G A  18      22.684  19.203   0.304  1.00  0.00     0.187 HD
ATOM    440  C6    G A  18      20.995  20.317   0.674  1.00  0.00     0.292 A 
ATOM    441  O6    G A  18      21.608  21.389   0.725  1.00  0.00    -0.265 OA
ATOM    442  C5    G A  18      19.604  20.084   0.833  1.00  0.00     0.173 A 
ATOM    443  N7    G A  18      18.564  20.969   1.086  1.00  0.00    -0.234 NA
ATOM    444  C8    G A  18      17.503  20.213   1.132  1.00  0.00     0.214 A 
ATOM    445  C2'   G A  18      16.490  17.222   2.282  1.00  0.00     0.199 C 
ATOM    446  O2'   G A  18      16.132  15.859   2.143  1.00  0.00    -0.388 OA
ATOM    447 'HO2   G A  18      16.705  15.363   2.730  1.00  0.00     0.210 HD
ATOM    448  C3'   G A  18      15.288  18.076   2.664  1.00  0.00     0.198 C 
ATOM    449  O3'   G A  18      14.469  17.449   3.649  1.00  0.00    -0.279 OA
ATOM    450  P     G A  19      15.011  17.292   5.155  1.00  0.00     0.408 P 
ATOM    451  OP1   G A  19      13.890  16.770   5.978  1.00  0.00    -0.624 OA
ATOM    452  OP2   G A  19      15.677  18.562   5.546  1.00  0.00    -0.624 OA
ATOM    453  O5'   G A  19      16.121  16.152   5.054  1.00  0.00    -0.287 OA
ATOM    454  C5'   G A  19      17.267  16.163   5.904  1.00  0.00     0.216 C 
ATOM    455  C4'   G A  19      18.307  15.198   5.386  1.00  0.00     0.180 C 
ATOM    456  O4'   G A  19      18.875  15.741   4.164  1.00  0.00    -0.353 OA
ATOM    457  C1'   G A  19      20.277  15.547   4.157  1.00  0.00     0.262 C 
ATOM    458  N9    G A  19      20.919  16.857   4.179  1.00  0.00    -0.293 N 
ATOM    459  C4    G A  19      22.269  17.107   4.254  1.00  0.00     0.187 A 
ATOM    460  N3    G A  19      23.246  16.177   4.321  1.00  0.00    -0.044 NA
ATOM    461  C2    G A  19      24.445  16.727   4.384  1.00  0.00     0.703 A 
ATOM    462  N2    G A  19      25.527  15.948   4.454  1.00  0.00    -0.233 N 
ATOM    463  H21   G A  19      25.415  14.944   4.457  1.00  0.00     0.174 HD
ATOM    464  H22   G A  19      26.448  16.358   4.511  1.00  0.00     0.174 HD
ATOM    465  N1    G A  19      24.673  18.078   4.382  1.00  0.00    -0.153 N 
ATOM    466  H1    G A  19      25.629  18.395   4.435  1.00  0.00     0.187 HD
ATOM    467  C6    G A  19      23.685  19.054   4.313  1.00  0.00     0.292 A 
ATOM    468  O6    G A  19      24.001  20.249   4.317  1.00  0.00    -0.265 OA
ATOM    469  C5    G A  19      22.389  18.481   4.244  1.00  0.00     0.173 A 
ATOM    470  N7    G A  19      21.140  19.083   4.164  1.00  0.00    -0.234 NA
ATOM    471  C8    G A  19      20.303  18.083   4.128  1.00  0.00     0.214 A 
ATOM    472  C2'   G A  19      20.634  14.661   5.351  1.00  0.00     0.199 C 
ATOM    473  O2'   G A  19      20.602  13.308   4.937  1.00  0.00    -0.388 OA
ATOM    474 'HO2   G A  19      20.559  12.778   5.734  1.00  0.00     0.210 HD
ATOM    475  C3'   G A  19      19.494  14.971   6.315  1.00  0.00     0.198 C 
ATOM    476  O3'   G A  19      19.241  13.894   7.217  1.00  0.00    -0.279 OA
ATOM    477  P     U A  20      19.219  14.163   8.803  1.00  0.00     0.408 P 
ATOM    478  OP1   U A  20      18.550  13.002   9.442  1.00  0.00    -0.624 OA
ATOM    479  OP2   U A  20      18.693  15.533   9.041  1.00  0.00    -0.624 OA
ATOM    480  O5'   U A  20      20.757  14.139   9.218  1.00  0.00    -0.287 OA
ATOM    481  C5'   U A  20      21.642  13.149   8.696  1.00  0.00     0.216 C 
ATOM    482  C4'   U A  20      23.079  13.582   8.877  1.00  0.00     0.180 C 
ATOM    483  O4'   U A  20      23.263  14.866   8.217  1.00  0.00    -0.353 OA
ATOM    484  C1'   U A  20      23.589  15.854   9.172  1.00  0.00     0.264 C 
ATOM    485  N1    U A  20      22.833  17.073   8.852  1.00  0.00    -0.280 N 
ATOM    486  C6    U A  20      21.462  17.046   8.755  1.00  0.00     0.104 A 
ATOM    487  C2    U A  20      23.539  18.244   8.659  1.00  0.00     0.331 A 
ATOM    488  O2    U A  20      24.755  18.305   8.729  1.00  0.00    -0.246 OA
ATOM    489  N3    U A  20      22.767  19.343   8.379  1.00  0.00    -0.275 N 
ATOM    490  H3    U A  20      23.248  20.213   8.214  1.00  0.00     0.173 HD
ATOM    491  C4    U A  20      21.397  19.390   8.274  1.00  0.00     0.250 A 
ATOM    492  O4    U A  20      20.845  20.461   8.021  1.00  0.00    -0.268 OA
ATOM    493  C5    U A  20      20.743  18.137   8.480  1.00  0.00     0.092 A 
ATOM    494  C2'   U A  20      23.264  15.279  10.550  1.00  0.00     0.199 C 
ATOM    495  O2'   U A  20      24.176  15.815  11.490  1.00  0.00    -0.388 OA
ATOM    496 'HO2   U A  20      24.939  15.236  11.491  1.00  0.00     0.210 HD
ATOM    497  C3'   U A  20      23.517  13.793  10.323  1.00  0.00     0.198 C 
ATOM    498  O3'   U A  20      24.886  13.444  10.512  1.00  0.00    -0.279 OA
ATOM    499  P     U A  21      25.276  11.943  10.937  1.00  0.00     0.408 P 
ATOM    500  OP1   U A  21      24.432  11.576  12.103  1.00  0.00    -0.624 OA
ATOM    501  OP2   U A  21      26.755  11.864  11.049  1.00  0.00    -0.624 OA
ATOM    502  O5'   U A  21      24.820  11.061   9.690  1.00  0.00    -0.287 OA
ATOM    503  C5'   U A  21      24.646   9.650   9.810  1.00  0.00     0.216 C 
ATOM    504  C4'   U A  21      24.532   9.020   8.440  1.00  0.00     0.180 C 
ATOM    505  O4'   U A  21      25.495   9.648   7.551  1.00  0.00    -0.353 OA
ATOM    506  C1'   U A  21      26.558   8.752   7.281  1.00  0.00     0.264 C 
ATOM    507  N1    U A  21      27.826   9.465   7.498  1.00  0.00    -0.280 N 
ATOM    508  C6    U A  21      27.932  10.452   8.451  1.00  0.00     0.104 A 
ATOM    509  C2    U A  21      28.908   9.114   6.712  1.00  0.00     0.331 A 
ATOM    510  O2    U A  21      28.856   8.247   5.860  1.00  0.00    -0.246 OA
ATOM    511  N3    U A  21      30.057   9.818   6.963  1.00  0.00    -0.275 N 
ATOM    512  H3    U A  21      30.862   9.575   6.406  1.00  0.00     0.173 HD
ATOM    513  C4    U A  21      30.233  10.815   7.896  1.00  0.00     0.250 A 
ATOM    514  O4    U A  21      31.330  11.365   7.993  1.00  0.00    -0.268 OA
ATOM    515  C5    U A  21      29.070  11.117   8.669  1.00  0.00     0.092 A 
ATOM    516  C2'   U A  21      26.373   7.533   8.185  1.00  0.00     0.199 C 
ATOM    517  O2'   U A  21      26.797   6.379   7.484  1.00  0.00    -0.388 OA
ATOM    518 'HO2   U A  21      26.055   6.090   6.949  1.00  0.00     0.210 HD
ATOM    519  C3'   U A  21      24.861   7.534   8.382  1.00  0.00     0.198 C 
ATOM    520  O3'   U A  21      24.171   6.889   7.312  1.00  0.00    -0.279 OA
ATOM    521  P     A A  22      22.730   6.225   7.575  1.00  0.00     0.408 P 
ATOM    522  OP1   A A  22      22.129   6.896   8.756  1.00  0.00    -0.624 OA
ATOM    523  OP2   A A  22      22.892   4.748   7.582  1.00  0.00    -0.624 OA
ATOM    524  O5'   A A  22      21.877   6.618   6.287  1.00  0.00    -0.287 OA
ATOM    525  C5'   A A  22      20.465   6.816   6.370  1.00  0.00     0.216 C 
ATOM    526  C4'   A A  22      20.155   8.265   6.680  1.00  0.00     0.180 C 
ATOM    527  O4'   A A  22      21.390   8.955   7.014  1.00  0.00    -0.353 OA
ATOM    528  C1'   A A  22      21.373  10.260   6.466  1.00  0.00     0.262 C 
ATOM    529  N9    A A  22      22.460  10.367   5.495  1.00  0.00    -0.294 N 
ATOM    530  C4    A A  22      23.316  11.431   5.347  1.00  0.00     0.167 A 
ATOM    531  N3    A A  22      23.328  12.570   6.059  1.00  0.00    -0.222 NA
ATOM    532  C2    A A  22      24.296  13.378   5.635  1.00  0.00     0.237 A 
ATOM    533  N1    A A  22      25.187  13.191   4.651  1.00  0.00    -0.222 NA
ATOM    534  C6    A A  22      25.146  12.035   3.955  1.00  0.00     0.155 A 
ATOM    535  N6    A A  22      26.031  11.850   2.976  1.00  0.00    -0.382 N 
ATOM    536  H61   A A  22      26.016  10.993   2.441  1.00  0.00     0.157 HD
ATOM    537  H62   A A  22      26.711  12.565   2.768  1.00  0.00     0.157 HD
ATOM    538  C5    A A  22      24.163  11.093   4.308  1.00  0.00     0.149 A 
ATOM    539  N7    A A  22      23.852   9.835   3.811  1.00  0.00    -0.236 NA
ATOM    540  C8    A A  22      22.840   9.447   4.548  1.00  0.00     0.214 A 
ATOM    541  C2'   A A  22      19.989  10.492   5.860  1.00  0.00     0.199 C 
ATOM    542  O2'   A A  22      19.151  11.061   6.849  1.00  0.00    -0.388 OA
ATOM    543 'HO2   A A  22      18.627  11.737   6.418  1.00  0.00     0.210 HD
ATOM    544  C3'   A A  22      19.568   9.066   5.525  1.00  0.00     0.198 C 
ATOM    545  O3'   A A  22      18.153   8.921   5.452  1.00  0.00    -0.279 OA
ATOM    546  P     U A  23      17.349   9.548   4.208  1.00  0.00     0.408 P 
ATOM    547  OP1   U A  23      17.357  11.023   4.376  1.00  0.00    -0.624 OA
ATOM    548  OP2   U A  23      16.054   8.832   4.080  1.00  0.00    -0.624 OA
ATOM    549  O5'   U A  23      18.249   9.178   2.946  1.00  0.00    -0.287 OA
ATOM    550  C5'   U A  23      17.898   9.617   1.633  1.00  0.00     0.216 C 
ATOM    551  C4'   U A  23      18.172  11.097   1.487  1.00  0.00     0.180 C 
ATOM    552  O4'   U A  23      19.430  11.408   2.134  1.00  0.00    -0.353 OA
ATOM    553  C1'   U A  23      20.055  12.484   1.461  1.00  0.00     0.264 C 
ATOM    554  N1    U A  23      21.439  12.091   1.158  1.00  0.00    -0.280 N 
ATOM    555  C6    U A  23      21.801  10.764   1.068  1.00  0.00     0.104 A 
ATOM    556  C2    U A  23      22.369  13.097   0.970  1.00  0.00     0.331 A 
ATOM    557  O2    U A  23      22.088  14.280   1.034  1.00  0.00    -0.246 OA
ATOM    558  N3    U A  23      23.643  12.666   0.699  1.00  0.00    -0.275 N 
ATOM    559  H3    U A  23      24.338  13.385   0.562  1.00  0.00     0.173 HD
ATOM    560  C4    U A  23      24.073  11.363   0.598  1.00  0.00     0.250 A 
ATOM    561  O4    U A  23      25.259  11.135   0.360  1.00  0.00    -0.268 OA
ATOM    562  C5    U A  23      23.054  10.382   0.801  1.00  0.00     0.092 A 
ATOM    563  C2'   U A  23      19.223  12.831   0.221  1.00  0.00     0.199 C 
ATOM    564  O2'   U A  23      18.435  13.968   0.517  1.00  0.00    -0.388 OA
ATOM    565 'HO2   U A  23      17.518  13.706   0.432  1.00  0.00     0.210 HD
ATOM    566  C3'   U A  23      18.352  11.586   0.058  1.00  0.00     0.198 C 
ATOM    567  O3'   U A  23      17.093  11.883  -0.541  1.00  0.00    -0.279 OA
ATOM    568  P     C A  24      16.914  11.756  -2.133  1.00  0.00     0.408 P 
ATOM    569  OP1   C A  24      16.591  10.338  -2.432  1.00  0.00    -0.624 OA
ATOM    570  OP2   C A  24      18.079  12.397  -2.795  1.00  0.00    -0.624 OA
ATOM    571  O5'   C A  24      15.616  12.625  -2.445  1.00  0.00    -0.287 OA
ATOM    572  C5'   C A  24      15.413  13.895  -1.827  1.00  0.00     0.216 C 
ATOM    573  C4'   C A  24      14.404  14.702  -2.610  1.00  0.00     0.180 C 
ATOM    574  O4'   C A  24      14.839  14.782  -3.996  1.00  0.00    -0.353 OA
ATOM    575  C1'   C A  24      13.727  14.620  -4.858  1.00  0.00     0.264 C 
ATOM    576  N1    C A  24      13.896  13.361  -5.603  1.00  0.00    -0.278 N 
ATOM    577  C6    C A  24      14.451  12.264  -5.004  1.00  0.00     0.102 A 
ATOM    578  C2    C A  24      13.480  13.302  -6.936  1.00  0.00     0.352 A 
ATOM    579  O2    C A  24      12.986  14.312  -7.455  1.00  0.00    -0.244 OA
ATOM    580  N3    C A  24      13.628  12.148  -7.624  1.00  0.00    -0.177 NA
ATOM    581  C4    C A  24      14.168  11.082  -7.029  1.00  0.00     0.128 A 
ATOM    582  N4    C A  24      14.290   9.968  -7.747  1.00  0.00    -0.384 N 
ATOM    583  H41   C A  24      14.693   9.140  -7.333  1.00  0.00     0.157 HD
ATOM    584  H42   C A  24      13.977   9.959  -8.707  1.00  0.00     0.157 HD
ATOM    585  C5    C A  24      14.605  11.115  -5.674  1.00  0.00     0.067 A 
ATOM    586  C2'   C A  24      12.468  14.656  -3.993  1.00  0.00     0.199 C 
ATOM    587  O2'   C A  24      12.050  16.002  -3.854  1.00  0.00    -0.388 OA
ATOM    588 'HO2   C A  24      12.114  16.221  -2.924  1.00  0.00     0.210 HD
ATOM    589  C3'   C A  24      13.002  14.107  -2.675  1.00  0.00     0.198 C 
ATOM    590  O3'   C A  24      12.206  14.508  -1.564  1.00  0.00    -0.279 OA
ATOM    591  P     A A  25      11.034  13.544  -1.030  1.00  0.00     0.408 P 
ATOM    592  OP1   A A  25      10.346  14.247   0.082  1.00  0.00    -0.624 OA
ATOM    593  OP2   A A  25      11.610  12.194  -0.800  1.00  0.00    -0.624 OA
ATOM    594  O5'   A A  25      10.022  13.447  -2.258  1.00  0.00    -0.287 OA
ATOM    595  C5'   A A  25       9.223  14.565  -2.643  1.00  0.00     0.216 C 
ATOM    596  C4'   A A  25       7.967  14.093  -3.340  1.00  0.00     0.180 C 
ATOM    597  O4'   A A  25       8.301  13.751  -4.715  1.00  0.00    -0.353 OA
ATOM    598  C1'   A A  25       7.710  12.513  -5.058  1.00  0.00     0.262 C 
ATOM    599  N9    A A  25       8.773  11.518  -5.187  1.00  0.00    -0.294 N 
ATOM    600  C4    A A  25       8.689  10.318  -5.852  1.00  0.00     0.167 A 
ATOM    601  N3    A A  25       7.628   9.824  -6.510  1.00  0.00    -0.222 NA
ATOM    602  C2    A A  25       7.913   8.633  -7.032  1.00  0.00     0.237 A 
ATOM    603  N1    A A  25       9.053   7.933  -6.974  1.00  0.00    -0.222 NA
ATOM    604  C6    A A  25      10.099   8.458  -6.302  1.00  0.00     0.155 A 
ATOM    605  N6    A A  25      11.232   7.758  -6.238  1.00  0.00    -0.382 N 
ATOM    606  H61   A A  25      12.025   8.134  -5.738  1.00  0.00     0.157 HD
ATOM    607  H62   A A  25      11.290   6.855  -6.685  1.00  0.00     0.157 HD
ATOM    608  C5    A A  25       9.927   9.718  -5.703  1.00  0.00     0.149 A 
ATOM    609  N7    A A  25      10.777  10.523  -4.959  1.00  0.00    -0.236 NA
ATOM    610  C8    A A  25      10.048  11.575  -4.678  1.00  0.00     0.214 A 
ATOM    611  C2'   A A  25       6.688  12.184  -3.974  1.00  0.00     0.199 C 
ATOM    612  O2'   A A  25       5.459  12.805  -4.305  1.00  0.00    -0.388 OA
ATOM    613 'HO2   A A  25       4.791  12.441  -3.722  1.00  0.00     0.210 HD
ATOM    614  C3'   A A  25       7.332  12.835  -2.756  1.00  0.00     0.198 C 
ATOM    615  O3'   A A  25       6.383  13.155  -1.742  1.00  0.00    -0.279 OA
ATOM    616  P     C A  26       5.644  11.974  -0.939  1.00  0.00     0.408 P 
ATOM    617  OP1   C A  26       5.184  12.539   0.356  1.00  0.00    -0.624 OA
ATOM    618  OP2   C A  26       6.521  10.775  -0.945  1.00  0.00    -0.624 OA
ATOM    619  O5'   C A  26       4.357  11.652  -1.821  1.00  0.00    -0.287 OA
ATOM    620  C5'   C A  26       3.551  10.504  -1.554  1.00  0.00     0.216 C 
ATOM    621  C4'   C A  26       2.601  10.255  -2.702  1.00  0.00     0.180 C 
ATOM    622  O4'   C A  26       3.341  10.341  -3.953  1.00  0.00    -0.353 OA
ATOM    623  C1'   C A  26       2.949   9.286  -4.815  1.00  0.00     0.264 C 
ATOM    624  N1    C A  26       4.084   8.359  -4.961  1.00  0.00    -0.278 N 
ATOM    625  C6    C A  26       5.120   8.374  -4.068  1.00  0.00     0.102 A 
ATOM    626  C2    C A  26       4.087   7.456  -6.029  1.00  0.00     0.352 A 
ATOM    627  O2    C A  26       3.137   7.464  -6.826  1.00  0.00    -0.244 OA
ATOM    628  N3    C A  26       5.124   6.599  -6.167  1.00  0.00    -0.177 NA
ATOM    629  C4    C A  26       6.126   6.621  -5.288  1.00  0.00     0.128 A 
ATOM    630  N4    C A  26       7.124   5.757  -5.465  1.00  0.00    -0.384 N 
ATOM    631  H41   C A  26       7.900   5.744  -4.822  1.00  0.00     0.157 HD
ATOM    632  H42   C A  26       7.091   5.118  -6.243  1.00  0.00     0.157 HD
ATOM    633  C5    C A  26       6.151   7.528  -4.191  1.00  0.00     0.067 A 
ATOM    634  C2'   C A  26       1.702   8.648  -4.205  1.00  0.00     0.199 C 
ATOM    635  O2'   C A  26       0.562   9.364  -4.641  1.00  0.00    -0.388 OA
ATOM    636 'HO2   C A  26       0.006   9.486  -3.872  1.00  0.00     0.210 HD
ATOM    637  C3'   C A  26       1.959   8.874  -2.720  1.00  0.00     0.198 C 
ATOM    638  O3'   C A  26       0.759   8.844  -1.949  1.00  0.00    -0.279 OA
ATOM    639  P     G A  27       0.631   7.834  -0.704  1.00  0.00     0.408 P 
ATOM    640  OP1   G A  27      -0.554   8.257   0.086  1.00  0.00    -0.624 OA
ATOM    641  OP2   G A  27       1.957   7.733  -0.040  1.00  0.00    -0.624 OA
ATOM    642  O5'   G A  27       0.304   6.427  -1.377  1.00  0.00    -0.287 OA
ATOM    643  C5'   G A  27      -1.013   6.121  -1.836  1.00  0.00     0.216 C 
ATOM    644  C4'   G A  27      -0.956   5.093  -2.944  1.00  0.00     0.180 C 
ATOM    645  O4'   G A  27       0.172   5.373  -3.810  1.00  0.00    -0.353 OA
ATOM    646  C1'   G A  27       0.638   4.161  -4.381  1.00  0.00     0.262 C 
ATOM    647  N9    G A  27       2.070   4.046  -4.125  1.00  0.00    -0.293 N 
ATOM    648  C4    G A  27       2.841   2.922  -4.307  1.00  0.00     0.187 A 
ATOM    649  N3    G A  27       2.404   1.727  -4.750  1.00  0.00    -0.044 NA
ATOM    650  C2    G A  27       3.378   0.839  -4.820  1.00  0.00     0.703 A 
ATOM    651  N2    G A  27       3.110  -0.400  -5.237  1.00  0.00    -0.233 N 
ATOM    652  H21   G A  27       2.163  -0.638  -5.493  1.00  0.00     0.174 HD
ATOM    653  H22   G A  27       3.841  -1.091  -5.299  1.00  0.00     0.174 HD
ATOM    654  N1    G A  27       4.681   1.102  -4.483  1.00  0.00    -0.153 N 
ATOM    655  H1    G A  27       5.350   0.352  -4.573  1.00  0.00     0.187 HD
ATOM    656  C6    G A  27       5.157   2.326  -4.025  1.00  0.00     0.292 A 
ATOM    657  O6    G A  27       6.356   2.455  -3.751  1.00  0.00    -0.265 OA
ATOM    658  C5    G A  27       4.118   3.291  -3.942  1.00  0.00     0.173 A 
ATOM    659  N7    G A  27       4.152   4.619  -3.538  1.00  0.00    -0.234 NA
ATOM    660  C8    G A  27       2.917   5.023  -3.662  1.00  0.00     0.214 A 
ATOM    661  C2'   G A  27      -0.185   3.016  -3.783  1.00  0.00     0.199 C 
ATOM    662  O2'   G A  27      -1.242   2.705  -4.672  1.00  0.00    -0.388 OA
ATOM    663 'HO2   G A  27      -2.041   2.657  -4.146  1.00  0.00     0.210 HD
ATOM    664  C3'   G A  27      -0.712   3.657  -2.505  1.00  0.00     0.198 C 
ATOM    665  O3'   G A  27      -1.903   3.032  -2.035  1.00  0.00    -0.279 OA
ATOM    666  P     C A  28      -1.806   1.818  -0.982  1.00  0.00     0.408 P 
ATOM    667  OP1   C A  28      -3.180   1.289  -0.782  1.00  0.00    -0.624 OA
ATOM    668  OP2   C A  28      -1.020   2.279   0.190  1.00  0.00    -0.624 OA
ATOM    669  O5'   C A  28      -0.951   0.710  -1.747  1.00  0.00    -0.287 OA
ATOM    670  C5'   C A  28      -1.524  -0.067  -2.798  1.00  0.00     0.216 C 
ATOM    671  C4'   C A  28      -0.817  -1.399  -2.907  1.00  0.00     0.180 C 
ATOM    672  O4'   C A  28       0.463  -1.200  -3.573  1.00  0.00    -0.353 OA
ATOM    673  C1'   C A  28       1.463  -1.966  -2.926  1.00  0.00     0.264 C 
ATOM    674  N1    C A  28       2.399  -1.045  -2.260  1.00  0.00    -0.278 N 
ATOM    675  C6    C A  28       2.064   0.262  -2.047  1.00  0.00     0.102 A 
ATOM    676  C2    C A  28       3.641  -1.530  -1.847  1.00  0.00     0.352 A 
ATOM    677  O2    C A  28       3.921  -2.721  -2.047  1.00  0.00    -0.244 OA
ATOM    678  N3    C A  28       4.509  -0.693  -1.238  1.00  0.00    -0.177 NA
ATOM    679  C4    C A  28       4.174   0.582  -1.038  1.00  0.00     0.128 A 
ATOM    680  N4    C A  28       5.063   1.371  -0.437  1.00  0.00    -0.384 N 
ATOM    681  H41   C A  28       4.851   2.343  -0.267  1.00  0.00     0.157 HD
ATOM    682  H42   C A  28       5.954   0.991  -0.151  1.00  0.00     0.157 HD
ATOM    683  C5    C A  28       2.914   1.105  -1.447  1.00  0.00     0.067 A 
ATOM    684  C2'   C A  28       0.747  -2.911  -1.964  1.00  0.00     0.199 C 
ATOM    685  O2'   C A  28       0.359  -4.074  -2.672  1.00  0.00    -0.388 OA
ATOM    686 'HO2   C A  28      -0.465  -4.373  -2.287  1.00  0.00     0.210 HD
ATOM    687  C3'   C A  28      -0.460  -2.065  -1.584  1.00  0.00     0.198 C 
ATOM    688  O3'   C A  28      -1.536  -2.846  -1.074  1.00  0.00    -0.279 OA
ATOM    689  P     U A  29      -1.702  -3.037   0.515  1.00  0.00     0.408 P 
ATOM    690  OP1   U A  29      -3.016  -3.687   0.751  1.00  0.00    -0.624 OA
ATOM    691  OP2   U A  29      -1.392  -1.745   1.179  1.00  0.00    -0.624 OA
ATOM    692  O5'   U A  29      -0.557  -4.077   0.899  1.00  0.00    -0.287 OA
ATOM    693  C5'   U A  29      -0.566  -5.405   0.376  1.00  0.00     0.216 C 
ATOM    694  C4'   U A  29       0.755  -6.087   0.651  1.00  0.00     0.180 C 
ATOM    695  O4'   U A  29       1.827  -5.311   0.048  1.00  0.00    -0.353 OA
ATOM    696  C1'   U A  29       2.978  -5.368   0.875  1.00  0.00     0.264 C 
ATOM    697  N1    U A  29       3.302  -4.005   1.321  1.00  0.00    -0.280 N 
ATOM    698  C6    U A  29       2.371  -2.992   1.266  1.00  0.00     0.104 A 
ATOM    699  C2    U A  29       4.575  -3.776   1.806  1.00  0.00     0.331 A 
ATOM    700  O2    U A  29       5.428  -4.644   1.869  1.00  0.00    -0.246 OA
ATOM    701  N3    U A  29       4.817  -2.491   2.216  1.00  0.00    -0.275 N 
ATOM    702  H3    U A  29       5.742  -2.308   2.575  1.00  0.00     0.173 HD
ATOM    703  C4    U A  29       3.938  -1.434   2.189  1.00  0.00     0.250 A 
ATOM    704  O4    U A  29       4.307  -0.333   2.600  1.00  0.00    -0.268 OA
ATOM    705  C5    U A  29       2.644  -1.749   1.672  1.00  0.00     0.092 A 
ATOM    706  C2'   U A  29       2.668  -6.324   2.026  1.00  0.00     0.199 C 
ATOM    707  O2'   U A  29       3.050  -7.633   1.647  1.00  0.00    -0.388 OA
ATOM    708 'HO2   U A  29       3.051  -8.169   2.441  1.00  0.00     0.210 HD
ATOM    709  C3'   U A  29       1.154  -6.189   2.116  1.00  0.00     0.198 C 
ATOM    710  O3'   U A  29       0.542  -7.304   2.759  1.00  0.00    -0.279 OA
ATOM    711  P     U A  30       0.404  -7.326   4.362  1.00  0.00     0.408 P 
ATOM    712  OP1   U A  30      -0.487  -8.460   4.716  1.00  0.00    -0.624 OA
ATOM    713  OP2   U A  30       0.067  -5.956   4.826  1.00  0.00    -0.624 OA
ATOM    714  O5'   U A  30       1.875  -7.668   4.873  1.00  0.00    -0.287 OA
ATOM    715  C5'   U A  30       2.305  -9.020   5.026  1.00  0.00     0.216 C 
ATOM    716  C4'   U A  30       3.735  -9.063   5.518  1.00  0.00     0.180 C 
ATOM    717  O4'   U A  30       4.535  -8.126   4.743  1.00  0.00    -0.353 OA
ATOM    718  C1'   U A  30       5.462  -7.471   5.594  1.00  0.00     0.264 C 
ATOM    719  N1    U A  30       5.113  -6.043   5.652  1.00  0.00    -0.280 N 
ATOM    720  C6    U A  30       3.874  -5.596   5.252  1.00  0.00     0.104 A 
ATOM    721  C2    U A  30       6.069  -5.163   6.124  1.00  0.00     0.331 A 
ATOM    722  O2    U A  30       7.175  -5.518   6.487  1.00  0.00    -0.246 OA
ATOM    723  N3    U A  30       5.682  -3.849   6.153  1.00  0.00    -0.275 N 
ATOM    724  H3    U A  30       6.364  -3.190   6.498  1.00  0.00     0.173 HD
ATOM    725  C4    U A  30       4.465  -3.334   5.767  1.00  0.00     0.250 A 
ATOM    726  O4    U A  30       4.267  -2.123   5.854  1.00  0.00    -0.268 OA
ATOM    727  C5    U A  30       3.533  -4.306   5.292  1.00  0.00     0.092 A 
ATOM    728  C2'   U A  30       5.396  -8.170   6.951  1.00  0.00     0.199 C 
ATOM    729  O2'   U A  30       6.286  -9.271   6.939  1.00  0.00    -0.388 OA
ATOM    730 'HO2   U A  30       5.846  -9.988   7.395  1.00  0.00     0.210 HD
ATOM    731  C3'   U A  30       3.945  -8.631   6.963  1.00  0.00     0.198 C 
ATOM    732  O3'   U A  30       3.720  -9.702   7.875  1.00  0.00    -0.279 OA
ATOM    733  P     C A  31       3.243  -9.382   9.378  1.00  0.00     0.408 P 
ATOM    734  OP1   C A  31       3.067 -10.681  10.075  1.00  0.00    -0.624 OA
ATOM    735  OP2   C A  31       2.111  -8.423   9.318  1.00  0.00    -0.624 OA
ATOM    736  O5'   C A  31       4.491  -8.633  10.027  1.00  0.00    -0.287 OA
ATOM    737  C5'   C A  31       5.744  -9.295  10.185  1.00  0.00     0.216 C 
ATOM    738  C4'   C A  31       6.779  -8.335  10.724  1.00  0.00     0.180 C 
ATOM    739  O4'   C A  31       6.984  -7.265   9.765  1.00  0.00    -0.353 OA
ATOM    740  C1'   C A  31       7.277  -6.060  10.453  1.00  0.00     0.264 C 
ATOM    741  N1    C A  31       6.284  -5.046  10.062  1.00  0.00    -0.278 N 
ATOM    742  C6    C A  31       5.103  -5.407   9.472  1.00  0.00     0.102 A 
ATOM    743  C2    C A  31       6.567  -3.700  10.304  1.00  0.00     0.352 A 
ATOM    744  O2    C A  31       7.643  -3.398  10.839  1.00  0.00    -0.244 OA
ATOM    745  N3    C A  31       5.665  -2.759   9.950  1.00  0.00    -0.177 NA
ATOM    746  C4    C A  31       4.518  -3.119   9.373  1.00  0.00     0.128 A 
ATOM    747  N4    C A  31       3.661  -2.155   9.040  1.00  0.00    -0.384 N 
ATOM    748  H41   C A  31       2.781  -2.383   8.600  1.00  0.00     0.157 HD
ATOM    749  H42   C A  31       3.899  -1.191   9.228  1.00  0.00     0.157 HD
ATOM    750  C5    C A  31       4.201  -4.485   9.113  1.00  0.00     0.067 A 
ATOM    751  C2'   C A  31       7.278  -6.367  11.951  1.00  0.00     0.199 C 
ATOM    752  O2'   C A  31       8.601  -6.665  12.354  1.00  0.00    -0.388 OA
ATOM    753 'HO2   C A  31       8.559  -7.476  12.860  1.00  0.00     0.210 HD
ATOM    754  C3'   C A  31       6.396  -7.609  12.005  1.00  0.00     0.198 C 
ATOM    755  O3'   C A  31       6.647  -8.407  13.158  1.00  0.00    -0.279 OA
ATOM    756  P     C A  32       5.794  -8.165  14.499  1.00  0.00     0.408 P 
ATOM    757  OP1   C A  32       6.145  -9.252  15.448  1.00  0.00    -0.624 OA
ATOM    758  OP2   C A  32       4.373  -7.951  14.122  1.00  0.00    -0.624 OA
ATOM    759  O5'   C A  32       6.365  -6.795  15.078  1.00  0.00    -0.287 OA
ATOM    760  C5'   C A  32       7.689  -6.714  15.604  1.00  0.00     0.216 C 
ATOM    761  C4'   C A  32       7.924  -5.356  16.223  1.00  0.00     0.180 C 
ATOM    762  O4'   C A  32       8.027  -4.365  15.166  1.00  0.00    -0.353 OA
ATOM    763  C1'   C A  32       7.454  -3.144  15.600  1.00  0.00     0.264 C 
ATOM    764  N1    C A  32       6.354  -2.796  14.685  1.00  0.00    -0.278 N 
ATOM    765  C6    C A  32       5.654  -3.768  14.027  1.00  0.00     0.102 A 
ATOM    766  C2    C A  32       6.034  -1.451  14.500  1.00  0.00     0.352 A 
ATOM    767  O2    C A  32       6.684  -0.589  15.108  1.00  0.00    -0.244 OA
ATOM    768  N3    C A  32       5.026  -1.118  13.664  1.00  0.00    -0.177 NA
ATOM    769  C4    C A  32       4.351  -2.073  13.022  1.00  0.00     0.128 A 
ATOM    770  N4    C A  32       3.369  -1.697  12.205  1.00  0.00    -0.384 N 
ATOM    771  H41   C A  32       2.833  -2.385  11.699  1.00  0.00     0.157 HD
ATOM    772  H42   C A  32       3.161  -0.713  12.098  1.00  0.00     0.157 HD
ATOM    773  C5    C A  32       4.654  -3.455  13.193  1.00  0.00     0.067 A 
ATOM    774  C2'   C A  32       7.010  -3.328  17.053  1.00  0.00     0.199 C 
ATOM    775  O2'   C A  32       8.066  -2.922  17.904  1.00  0.00    -0.388 OA
ATOM    776 'HO2   C A  32       8.182  -3.617  18.552  1.00  0.00     0.210 HD
ATOM    777  C3'   C A  32       6.806  -4.837  17.115  1.00  0.00     0.198 C 
ATOM    778  O3'   C A  32       6.915  -5.348  18.440  1.00  0.00    -0.279 OA
ATOM    779  P     U A  33       5.608  -5.438  19.372  1.00  0.00     0.408 P 
ATOM    780  OP1   U A  33       6.031  -6.002  20.678  1.00  0.00    -0.624 OA
ATOM    781  OP2   U A  33       4.527  -6.104  18.601  1.00  0.00    -0.624 OA
ATOM    782  O5'   U A  33       5.189  -3.917  19.596  1.00  0.00    -0.287 OA
ATOM    783  C5'   U A  33       6.015  -3.029  20.350  1.00  0.00     0.216 C 
ATOM    784  C4'   U A  33       5.251  -1.769  20.686  1.00  0.00     0.180 C 
ATOM    785  O4'   U A  33       5.250  -0.898  19.525  1.00  0.00    -0.353 OA
ATOM    786  C1'   U A  33       3.997  -0.249  19.413  1.00  0.00     0.264 C 
ATOM    787  N1    U A  33       3.398  -0.627  18.125  1.00  0.00    -0.280 N 
ATOM    788  C6    U A  33       3.479  -1.918  17.652  1.00  0.00     0.104 A 
ATOM    789  C2    U A  33       2.752   0.358  17.399  1.00  0.00     0.331 A 
ATOM    790  O2    U A  33       2.658   1.510  17.783  1.00  0.00    -0.246 OA
ATOM    791  N3    U A  33       2.220  -0.058  16.204  1.00  0.00    -0.275 N 
ATOM    792  H3    U A  33       1.733   0.642  15.663  1.00  0.00     0.173 HD
ATOM    793  C4    U A  33       2.267  -1.326  15.672  1.00  0.00     0.250 A 
ATOM    794  O4    U A  33       1.746  -1.541  14.578  1.00  0.00    -0.268 OA
ATOM    795  C5    U A  33       2.949  -2.286  16.482  1.00  0.00     0.092 A 
ATOM    796  C2'   U A  33       3.153  -0.640  20.627  1.00  0.00     0.199 C 
ATOM    797  O2'   U A  33       3.338   0.331  21.640  1.00  0.00    -0.388 OA
ATOM    798 'HO2   U A  33       3.697  -0.129  22.400  1.00  0.00     0.210 HD
ATOM    799  C3'   U A  33       3.781  -1.972  21.023  1.00  0.00     0.198 C 
ATOM    800  O3'   U A  33       3.611  -2.268  22.407  1.00  0.00    -0.279 OA
ATOM    801  P     U A  34       2.186  -2.779  22.950  1.00  0.00     0.408 P 
ATOM    802  OP1   U A  34       2.410  -4.094  23.601  1.00  0.00    -0.624 OA
ATOM    803  OP2   U A  34       1.187  -2.665  21.855  1.00  0.00    -0.624 OA
ATOM    804  O5'   U A  34       1.815  -1.729  24.089  1.00  0.00    -0.287 OA
ATOM    805  C5'   U A  34       1.324  -0.427  23.764  1.00  0.00     0.216 C 
ATOM    806  C4'   U A  34      -0.123  -0.293  24.182  1.00  0.00     0.180 C 
ATOM    807  O4'   U A  34      -0.686  -1.621  24.375  1.00  0.00    -0.353 OA
ATOM    808  C1'   U A  34      -1.488  -1.638  25.541  1.00  0.00     0.264 C 
ATOM    809  N1    U A  34      -0.848  -2.515  26.534  1.00  0.00    -0.280 N 
ATOM    810  C6    U A  34       0.452  -2.941  26.381  1.00  0.00     0.104 A 
ATOM    811  C2    U A  34      -1.598  -2.897  27.631  1.00  0.00     0.331 A 
ATOM    812  O2    U A  34      -2.750  -2.544  27.802  1.00  0.00    -0.246 OA
ATOM    813  N3    U A  34      -0.947  -3.711  28.523  1.00  0.00    -0.275 N 
ATOM    814  H3    U A  34      -1.474  -4.001  29.332  1.00  0.00     0.173 HD
ATOM    815  C4    U A  34       0.346  -4.172  28.433  1.00  0.00     0.250 A 
ATOM    816  O4    U A  34       0.790  -4.899  29.321  1.00  0.00    -0.268 OA
ATOM    817  C5    U A  34       1.053  -3.735  27.272  1.00  0.00     0.092 A 
ATOM    818  C2'   U A  34      -1.647  -0.193  26.009  1.00  0.00     0.199 C 
ATOM    819  O2'   U A  34      -2.772   0.374  25.362  1.00  0.00    -0.388 OA
ATOM    820 'HO2   U A  34      -2.451   1.100  24.826  1.00  0.00     0.210 HD
ATOM    821  C3'   U A  34      -0.351   0.428  25.504  1.00  0.00     0.198 C 
ATOM    822  O3'   U A  34      -0.466   1.836  25.315  1.00  0.00    -0.279 OA
ATOM    823  P     A A  35      -0.199   2.833  26.548  1.00  0.00     0.408 P 
ATOM    824  OP1   A A  35       1.252   3.145  26.556  1.00  0.00    -0.624 OA
ATOM    825  OP2   A A  35      -0.833   2.262  27.763  1.00  0.00    -0.624 OA
ATOM    826  O5'   A A  35      -0.989   4.160  26.151  1.00  0.00    -0.287 OA
ATOM    827  C5'   A A  35      -0.969   4.655  24.813  1.00  0.00     0.216 C 
ATOM    828  C4'   A A  35      -2.109   5.624  24.599  1.00  0.00     0.180 C 
ATOM    829  O4'   A A  35      -3.363   4.904  24.767  1.00  0.00    -0.353 OA
ATOM    830  C1'   A A  35      -4.080   5.445  25.858  1.00  0.00     0.262 C 
ATOM    831  N9    A A  35      -4.710   4.344  26.588  1.00  0.00    -0.294 N 
ATOM    832  C4    A A  35      -6.021   4.286  26.995  1.00  0.00     0.167 A 
ATOM    833  N3    A A  35      -6.975   5.215  26.809  1.00  0.00    -0.222 NA
ATOM    834  C2    A A  35      -8.128   4.816  27.339  1.00  0.00     0.237 A 
ATOM    835  N1    A A  35      -8.414   3.679  27.988  1.00  0.00    -0.222 NA
ATOM    836  C6    A A  35      -7.433   2.769  28.159  1.00  0.00     0.155 A 
ATOM    837  N6    A A  35      -7.720   1.639  28.809  1.00  0.00    -0.382 N 
ATOM    838  H61   A A  35      -7.000   0.944  28.949  1.00  0.00     0.157 HD
ATOM    839  H62   A A  35      -8.652   1.484  29.162  1.00  0.00     0.157 HD
ATOM    840  C5    A A  35      -6.161   3.071  27.641  1.00  0.00     0.149 A 
ATOM    841  N7    A A  35      -4.961   2.374  27.642  1.00  0.00    -0.236 NA
ATOM    842  C8    A A  35      -4.134   3.170  27.007  1.00  0.00     0.214 A 
ATOM    843  C2'   A A  35      -3.079   6.248  26.683  1.00  0.00     0.199 C 
ATOM    844  O2'   A A  35      -3.767   7.298  27.340  1.00  0.00    -0.388 OA
ATOM    845 'HO2   A A  35      -3.978   7.948  26.669  1.00  0.00     0.210 HD
ATOM    846  C3'   A A  35      -2.168   6.785  25.587  1.00  0.00     0.198 C 
ATOM    847  O3'   A A  35      -2.698   7.964  24.984  1.00  0.00    -0.279 OA
ATOM    848  P     G A  36      -1.719   8.985  24.214  1.00  0.00     0.408 P 
ATOM    849  OP1   G A  36      -0.317   8.573  24.475  1.00  0.00    -0.624 OA
ATOM    850  OP2   G A  36      -2.152  10.366  24.550  1.00  0.00    -0.624 OA
ATOM    851  O5'   G A  36      -2.039   8.735  22.672  1.00  0.00    -0.287 OA
ATOM    852  C5'   G A  36      -1.134   8.013  21.835  1.00  0.00     0.216 C 
ATOM    853  C4'   G A  36      -1.883   7.378  20.687  1.00  0.00     0.180 C 
ATOM    854  O4'   G A  36      -2.772   6.360  21.223  1.00  0.00    -0.353 OA
ATOM    855  C1'   G A  36      -4.042   6.455  20.604  1.00  0.00     0.262 C 
ATOM    856  N9    G A  36      -5.008   6.900  21.605  1.00  0.00    -0.293 N 
ATOM    857  C4    G A  36      -6.363   7.057  21.424  1.00  0.00     0.187 A 
ATOM    858  N3    G A  36      -7.042   6.830  20.281  1.00  0.00    -0.044 NA
ATOM    859  C2    G A  36      -8.332   7.072  20.418  1.00  0.00     0.703 A 
ATOM    860  N2    G A  36      -9.152   6.904  19.376  1.00  0.00    -0.233 N 
ATOM    861  H21   G A  36      -8.768   6.594  18.496  1.00  0.00     0.174 HD
ATOM    862  H22   G A  36     -10.139   7.096  19.464  1.00  0.00     0.174 HD
ATOM    863  N1    G A  36      -8.915   7.498  21.584  1.00  0.00    -0.153 N 
ATOM    864  H1    G A  36      -9.912   7.654  21.584  1.00  0.00     0.187 HD
ATOM    865  C6    G A  36      -8.238   7.737  22.774  1.00  0.00     0.292 A 
ATOM    866  O6    G A  36      -8.863   8.118  23.770  1.00  0.00    -0.265 OA
ATOM    867  C5    G A  36      -6.847   7.486  22.642  1.00  0.00     0.173 A 
ATOM    868  N7    G A  36      -5.820   7.599  23.569  1.00  0.00    -0.234 NA
ATOM    869  C8    G A  36      -4.751   7.242  22.910  1.00  0.00     0.214 A 
ATOM    870  C2'   G A  36      -3.899   7.402  19.413  1.00  0.00     0.199 C 
ATOM    871  O2'   G A  36      -3.494   6.649  18.283  1.00  0.00    -0.388 OA
ATOM    872 'HO2   G A  36      -2.947   7.226  17.747  1.00  0.00     0.210 HD
ATOM    873  C3'   G A  36      -2.782   8.321  19.894  1.00  0.00     0.198 C 
ATOM    874  O3'   G A  36      -2.078   8.926  18.812  1.00  0.00    -0.279 OA
ATOM    875  P     C A  37      -2.495  10.395  18.308  1.00  0.00     0.408 P 
ATOM    876  OP1   C A  37      -1.806  10.642  17.016  1.00  0.00    -0.624 OA
ATOM    877  OP2   C A  37      -2.301  11.344  19.435  1.00  0.00    -0.624 OA
ATOM    878  O5'   C A  37      -4.059  10.278  18.025  1.00  0.00    -0.287 OA
ATOM    879  C5'   C A  37      -4.553   9.598  16.870  1.00  0.00     0.216 C 
ATOM    880  C4'   C A  37      -6.038   9.830  16.724  1.00  0.00     0.180 C 
ATOM    881  O4'   C A  37      -6.733   9.086  17.762  1.00  0.00    -0.353 OA
ATOM    882  C1'   C A  37      -7.790   9.868  18.288  1.00  0.00     0.264 C 
ATOM    883  N1    C A  37      -7.498  10.151  19.702  1.00  0.00    -0.278 N 
ATOM    884  C6    C A  37      -6.209  10.288  20.138  1.00  0.00     0.102 A 
ATOM    885  C2    C A  37      -8.562  10.281  20.598  1.00  0.00     0.352 A 
ATOM    886  O2    C A  37      -9.720  10.149  20.177  1.00  0.00    -0.244 OA
ATOM    887  N3    C A  37      -8.302  10.542  21.899  1.00  0.00    -0.177 NA
ATOM    888  C4    C A  37      -7.042  10.669  22.315  1.00  0.00     0.128 A 
ATOM    889  N4    C A  37      -6.836  10.920  23.606  1.00  0.00    -0.384 N 
ATOM    890  H41   C A  37      -5.898  11.022  23.962  1.00  0.00     0.157 HD
ATOM    891  H42   C A  37      -7.628  10.999  24.228  1.00  0.00     0.157 HD
ATOM    892  C5    C A  37      -5.937  10.543  21.424  1.00  0.00     0.067 A 
ATOM    893  C2'   C A  37      -7.916  11.119  17.419  1.00  0.00     0.199 C 
ATOM    894  O2'   C A  37      -8.812  10.846  16.358  1.00  0.00    -0.388 OA
ATOM    895 'HO2   C A  37      -8.283  10.757  15.564  1.00  0.00     0.210 HD
ATOM    896  C3'   C A  37      -6.488  11.274  16.909  1.00  0.00     0.198 C 
ATOM    897  O3'   C A  37      -6.426  11.993  15.681  1.00  0.00    -0.279 OA
ATOM    898  P     A A  38      -6.168  13.580  15.696  1.00  0.00     0.408 P 
ATOM    899  OP1   A A  38      -4.775  13.796  16.166  1.00  0.00    -0.624 OA
ATOM    900  OP2   A A  38      -7.293  14.232  16.413  1.00  0.00    -0.624 OA
ATOM    901  O5'   A A  38      -6.242  13.993  14.158  1.00  0.00    -0.287 OA
ATOM    902  C5'   A A  38      -7.190  13.388  13.278  1.00  0.00     0.216 C 
ATOM    903  C4'   A A  38      -6.479  12.528  12.256  1.00  0.00     0.180 C 
ATOM    904  O4'   A A  38      -5.649  13.388  11.427  1.00  0.00    -0.353 OA
ATOM    905  C1'   A A  38      -4.284  13.078  11.628  1.00  0.00     0.262 C 
ATOM    906  N9    A A  38      -3.538  14.334  11.712  1.00  0.00    -0.294 N 
ATOM    907  C4    A A  38      -2.648  14.818  10.784  1.00  0.00     0.167 A 
ATOM    908  N3    A A  38      -2.286  14.242   9.624  1.00  0.00    -0.222 NA
ATOM    909  C2    A A  38      -1.400  15.000   8.982  1.00  0.00     0.237 A 
ATOM    910  N1    A A  38      -0.875  16.179   9.340  1.00  0.00    -0.222 NA
ATOM    911  C6    A A  38      -1.261  16.729  10.511  1.00  0.00     0.155 A 
ATOM    912  N6    A A  38      -0.738  17.902  10.867  1.00  0.00    -0.382 N 
ATOM    913  H61   A A  38      -1.014  18.329  11.740  1.00  0.00     0.157 HD
ATOM    914  H62   A A  38      -0.066  18.357  10.267  1.00  0.00     0.157 HD
ATOM    915  C5    A A  38      -2.198  16.024  11.287  1.00  0.00     0.149 A 
ATOM    916  N7    A A  38      -2.793  16.298  12.512  1.00  0.00    -0.236 NA
ATOM    917  C8    A A  38      -3.575  15.268  12.718  1.00  0.00     0.214 A 
ATOM    918  C2'   A A  38      -4.198  12.219  12.886  1.00  0.00     0.199 C 
ATOM    919  O2'   A A  38      -3.106  11.329  12.753  1.00  0.00    -0.388 OA
ATOM    920 'HO2   A A  38      -3.279  10.572  13.317  1.00  0.00     0.210 HD
ATOM    921  C3'   A A  38      -5.531  11.479  12.828  1.00  0.00     0.198 C 
ATOM    922  O3'   A A  38      -5.478  10.323  11.996  1.00  0.00    -0.279 OA
ATOM    923  P     U A  39      -5.316   8.866  12.657  1.00  0.00     0.408 P 
ATOM    924  OP1   U A  39      -4.885   7.937  11.580  1.00  0.00    -0.624 OA
ATOM    925  OP2   U A  39      -6.548   8.568  13.431  1.00  0.00    -0.624 OA
ATOM    926  O5'   U A  39      -4.109   9.041  13.685  1.00  0.00    -0.287 OA
ATOM    927  C5'   U A  39      -3.166   7.992  13.901  1.00  0.00     0.216 C 
ATOM    928  C4'   U A  39      -2.007   8.499  14.729  1.00  0.00     0.180 C 
ATOM    929  O4'   U A  39      -1.994   7.793  16.000  1.00  0.00    -0.353 OA
ATOM    930  C1'   U A  39      -0.657   7.493  16.368  1.00  0.00     0.264 C 
ATOM    931  N1    U A  39      -0.491   6.033  16.363  1.00  0.00    -0.280 N 
ATOM    932  C6    U A  39      -1.092   5.249  15.405  1.00  0.00     0.104 A 
ATOM    933  C2    U A  39       0.294   5.470  17.352  1.00  0.00     0.331 A 
ATOM    934  O2    U A  39       0.839   6.129  18.221  1.00  0.00    -0.246 OA
ATOM    935  N3    U A  39       0.421   4.106  17.288  1.00  0.00    -0.275 N 
ATOM    936  H3    U A  39       0.993   3.675  17.997  1.00  0.00     0.173 HD
ATOM    937  C4    U A  39      -0.147   3.266  16.358  1.00  0.00     0.250 A 
ATOM    938  O4    U A  39       0.069   2.056  16.426  1.00  0.00    -0.268 OA
ATOM    939  C5    U A  39      -0.947   3.922  15.372  1.00  0.00     0.092 A 
ATOM    940  C2'   U A  39       0.258   8.218  15.382  1.00  0.00     0.199 C 
ATOM    941  O2'   U A  39       0.509   9.521  15.875  1.00  0.00    -0.388 OA
ATOM    942 'HO2   U A  39      -0.329   9.987  15.883  1.00  0.00     0.210 HD
ATOM    943  C3'   U A  39      -0.624   8.253  14.140  1.00  0.00     0.198 C 
ATOM    944  O3'   U A  39      -0.247   9.283  13.231  1.00  0.00    -0.279 OA
ATOM    945  P     G A  40       0.683   8.931  11.965  1.00  0.00     0.408 P 
ATOM    946  OP1   G A  40       0.873  10.184  11.189  1.00  0.00    -0.624 OA
ATOM    947  OP2   G A  40       0.122   7.731  11.293  1.00  0.00    -0.624 OA
ATOM    948  O5'   G A  40       2.084   8.530  12.609  1.00  0.00    -0.287 OA
ATOM    949  C5'   G A  40       2.931   9.516  13.197  1.00  0.00     0.216 C 
ATOM    950  C4'   G A  40       3.990   8.856  14.050  1.00  0.00     0.180 C 
ATOM    951  O4'   G A  40       3.395   7.751  14.782  1.00  0.00    -0.353 OA
ATOM    952  C1'   G A  40       4.338   6.700  14.907  1.00  0.00     0.262 C 
ATOM    953  N9    G A  40       3.787   5.507  14.271  1.00  0.00    -0.293 N 
ATOM    954  C4    G A  40       4.314   4.240  14.325  1.00  0.00     0.187 A 
ATOM    955  N3    G A  40       5.437   3.878  14.980  1.00  0.00    -0.044 NA
ATOM    956  C2    G A  40       5.690   2.589  14.848  1.00  0.00     0.703 A 
ATOM    957  N2    G A  40       6.768   2.064  15.435  1.00  0.00    -0.233 N 
ATOM    958  H21   G A  40       7.379   2.660  15.973  1.00  0.00     0.174 HD
ATOM    959  H22   G A  40       6.968   1.077  15.342  1.00  0.00     0.174 HD
ATOM    960  N1    G A  40       4.906   1.723  14.131  1.00  0.00    -0.153 N 
ATOM    961  H1    G A  40       5.190   0.755  14.095  1.00  0.00     0.187 HD
ATOM    962  C6    G A  40       3.748   2.070  13.448  1.00  0.00     0.292 A 
ATOM    963  O6    G A  40       3.114   1.206  12.831  1.00  0.00    -0.265 OA
ATOM    964  C5    G A  40       3.461   3.455  13.579  1.00  0.00     0.173 A 
ATOM    965  N7    G A  40       2.415   4.213  13.068  1.00  0.00    -0.234 NA
ATOM    966  C8    G A  40       2.651   5.420  13.503  1.00  0.00     0.214 A 
ATOM    967  C2'   G A  40       5.648   7.173  14.277  1.00  0.00     0.199 C 
ATOM    968  O2'   G A  40       6.448   7.768  15.281  1.00  0.00    -0.388 OA
ATOM    969 'HO2   G A  40       6.763   8.598  14.922  1.00  0.00     0.210 HD
ATOM    970  C3'   G A  40       5.141   8.216  13.288  1.00  0.00     0.198 C 
ATOM    971  O3'   G A  40       6.144   9.170  12.945  1.00  0.00    -0.279 OA
ATOM    972  P     G A  41       7.143   8.876  11.719  1.00  0.00     0.408 P 
ATOM    973  OP1   G A  41       8.174   9.944  11.725  1.00  0.00    -0.624 OA
ATOM    974  OP2   G A  41       6.330   8.649  10.497  1.00  0.00    -0.624 OA
ATOM    975  O5'   G A  41       7.847   7.502  12.114  1.00  0.00    -0.287 OA
ATOM    976  C5'   G A  41       8.786   7.438  13.187  1.00  0.00     0.216 C 
ATOM    977  C4'   G A  41       9.523   6.119  13.159  1.00  0.00     0.180 C 
ATOM    978  O4'   G A  41       8.608   5.049  13.495  1.00  0.00    -0.353 OA
ATOM    979  C1'   G A  41       9.045   3.850  12.884  1.00  0.00     0.262 C 
ATOM    980  N9    G A  41       7.907   3.236  12.206  1.00  0.00    -0.293 N 
ATOM    981  C4    G A  41       7.764   1.905  11.896  1.00  0.00     0.187 A 
ATOM    982  N3    G A  41       8.654   0.929  12.168  1.00  0.00    -0.044 NA
ATOM    983  C2    G A  41       8.236  -0.250  11.747  1.00  0.00     0.703 A 
ATOM    984  N2    G A  41       8.999  -1.331  11.935  1.00  0.00    -0.233 N 
ATOM    985  H21   G A  41       9.890  -1.234  12.399  1.00  0.00     0.174 HD
ATOM    986  H22   G A  41       8.688  -2.237  11.614  1.00  0.00     0.174 HD
ATOM    987  N1    G A  41       7.040  -0.459  11.110  1.00  0.00    -0.153 N 
ATOM    988  H1    G A  41       6.819  -1.402  10.829  1.00  0.00     0.187 HD
ATOM    989  C6    G A  41       6.107   0.529  10.818  1.00  0.00     0.292 A 
ATOM    990  O6    G A  41       5.057   0.229  10.237  1.00  0.00    -0.265 OA
ATOM    991  C5    G A  41       6.542   1.805  11.265  1.00  0.00     0.173 A 
ATOM    992  N7    G A  41       5.928   3.048  11.180  1.00  0.00    -0.234 NA
ATOM    993  C8    G A  41       6.773   3.863  11.751  1.00  0.00     0.214 A 
ATOM    994  C2'   G A  41      10.208   4.187  11.945  1.00  0.00     0.199 C 
ATOM    995  O2'   G A  41      11.420   3.839  12.587  1.00  0.00    -0.388 OA
ATOM    996 'HO2   G A  41      12.066   3.685  11.896  1.00  0.00     0.210 HD
ATOM    997  C3'   G A  41      10.074   5.703  11.804  1.00  0.00     0.198 C 
ATOM    998  O3'   G A  41      11.320   6.341  11.537  1.00  0.00    -0.279 OA
ATOM    999  P     A A  42      12.018   6.164  10.100  1.00  0.00     0.408 P 
ATOM   1000  OP1   A A  42      13.189   7.076  10.066  1.00  0.00    -0.624 OA
ATOM   1001  OP2   A A  42      10.972   6.275   9.050  1.00  0.00    -0.624 OA
ATOM   1002  O5'   A A  42      12.563   4.667  10.117  1.00  0.00    -0.287 OA
ATOM   1003  C5'   A A  42      12.463   3.831   8.965  1.00  0.00     0.216 C 
ATOM   1004  C4'   A A  42      12.705   2.390   9.345  1.00  0.00     0.180 C 
ATOM   1005  O4'   A A  42      11.565   1.917  10.115  1.00  0.00    -0.353 OA
ATOM   1006  C1'   A A  42      11.203   0.617   9.688  1.00  0.00     0.262 C 
ATOM   1007  N9    A A  42       9.892   0.694   9.043  1.00  0.00    -0.294 N 
ATOM   1008  C4    A A  42       9.183  -0.352   8.504  1.00  0.00     0.167 A 
ATOM   1009  N3    A A  42       9.546  -1.645   8.456  1.00  0.00    -0.222 NA
ATOM   1010  C2    A A  42       8.604  -2.376   7.862  1.00  0.00     0.237 A 
ATOM   1011  N1    A A  42       7.429  -1.989   7.348  1.00  0.00    -0.222 NA
ATOM   1012  C6    A A  42       7.096  -0.682   7.413  1.00  0.00     0.155 A 
ATOM   1013  N6    A A  42       5.926  -0.297   6.903  1.00  0.00    -0.382 N 
ATOM   1014  H61   A A  42       5.657   0.676   6.942  1.00  0.00     0.157 HD
ATOM   1015  H62   A A  42       5.309  -0.975   6.478  1.00  0.00     0.157 HD
ATOM   1016  C5    A A  42       8.010   0.197   8.020  1.00  0.00     0.149 A 
ATOM   1017  N7    A A  42       7.980   1.566   8.245  1.00  0.00    -0.236 NA
ATOM   1018  C8    A A  42       9.115   1.810   8.851  1.00  0.00     0.214 A 
ATOM   1019  C2'   A A  42      12.318   0.111   8.773  1.00  0.00     0.199 C 
ATOM   1020  O2'   A A  42      13.310  -0.509   9.569  1.00  0.00    -0.388 OA
ATOM   1021 'HO2   A A  42      14.159  -0.261   9.199  1.00  0.00     0.210 HD
ATOM   1022  C3'   A A  42      12.825   1.419   8.176  1.00  0.00     0.198 C 
ATOM   1023  O3'   A A  42      14.171   1.321   7.717  1.00  0.00    -0.279 OA
ATOM   1024  P     A A  43      14.474   1.204   6.140  1.00  0.00     0.408 P 
ATOM   1025  OP1   A A  43      15.947   1.274   5.966  1.00  0.00    -0.624 OA
ATOM   1026  OP2   A A  43      13.605   2.171   5.423  1.00  0.00    -0.624 OA
ATOM   1027  O5'   A A  43      13.998  -0.270   5.764  1.00  0.00    -0.287 OA
ATOM   1028  C5'   A A  43      14.701  -1.414   6.245  1.00  0.00     0.216 C 
ATOM   1029  C4'   A A  43      14.134  -2.673   5.632  1.00  0.00     0.180 C 
ATOM   1030  O4'   A A  43      12.838  -2.946   6.232  1.00  0.00    -0.353 OA
ATOM   1031  C1'   A A  43      11.942  -3.421   5.242  1.00  0.00     0.262 C 
ATOM   1032  N9    A A  43      10.868  -2.441   5.082  1.00  0.00    -0.294 N 
ATOM   1033  C4    A A  43       9.655  -2.659   4.477  1.00  0.00     0.167 A 
ATOM   1034  N3    A A  43       9.213  -3.800   3.922  1.00  0.00    -0.222 NA
ATOM   1035  C2    A A  43       7.988  -3.639   3.428  1.00  0.00     0.237 A 
ATOM   1036  N1    A A  43       7.213  -2.546   3.426  1.00  0.00    -0.222 NA
ATOM   1037  C6    A A  43       7.687  -1.416   3.993  1.00  0.00     0.155 A 
ATOM   1038  N6    A A  43       6.914  -0.329   3.990  1.00  0.00    -0.382 N 
ATOM   1039  H61   A A  43       7.253   0.525   4.408  1.00  0.00     0.157 HD
ATOM   1040  H62   A A  43       5.996  -0.358   3.570  1.00  0.00     0.157 HD
ATOM   1041  C5    A A  43       8.976  -1.456   4.553  1.00  0.00     0.149 A 
ATOM   1042  N7    A A  43       9.745  -0.498   5.197  1.00  0.00    -0.236 NA
ATOM   1043  C8    A A  43      10.855  -1.131   5.489  1.00  0.00     0.214 A 
ATOM   1044  C2'   A A  43      12.751  -3.644   3.965  1.00  0.00     0.199 C 
ATOM   1045  O2'   A A  43      13.270  -4.962   3.983  1.00  0.00    -0.388 OA
ATOM   1046 'HO2   A A  43      12.990  -5.375   3.165  1.00  0.00     0.210 HD
ATOM   1047  C3'   A A  43      13.854  -2.607   4.136  1.00  0.00     0.198 C 
ATOM   1048  O3'   A A  43      15.013  -2.910   3.366  1.00  0.00    -0.279 OA
ATOM   1049  P     G A  44      15.063  -2.516   1.807  1.00  0.00     0.408 P 
ATOM   1050  OP1   G A  44      16.417  -2.867   1.306  1.00  0.00    -0.624 OA
ATOM   1051  OP2   G A  44      14.563  -1.125   1.655  1.00  0.00    -0.624 OA
ATOM   1052  O5'   G A  44      14.011  -3.499   1.123  1.00  0.00    -0.287 OA
ATOM   1053  C5'   G A  44      14.323  -4.875   0.910  1.00  0.00     0.216 C 
ATOM   1054  C4'   G A  44      13.093  -5.624   0.447  1.00  0.00     0.180 C 
ATOM   1055  O4'   G A  44      11.954  -5.222   1.252  1.00  0.00    -0.353 OA
ATOM   1056  C1'   G A  44      10.776  -5.264   0.462  1.00  0.00     0.262 C 
ATOM   1057  N9    G A  44      10.154  -3.943   0.487  1.00  0.00    -0.293 N 
ATOM   1058  C4    G A  44       8.891  -3.627   0.046  1.00  0.00     0.187 A 
ATOM   1059  N3    G A  44       8.000  -4.486  -0.492  1.00  0.00    -0.044 NA
ATOM   1060  C2    G A  44       6.872  -3.883  -0.822  1.00  0.00     0.703 A 
ATOM   1061  N2    G A  44       5.880  -4.587  -1.374  1.00  0.00    -0.233 N 
ATOM   1062  H21   G A  44       6.005  -5.577  -1.533  1.00  0.00     0.174 HD
ATOM   1063  H22   G A  44       5.017  -4.133  -1.636  1.00  0.00     0.174 HD
ATOM   1064  N1    G A  44       6.633  -2.547  -0.638  1.00  0.00    -0.153 N 
ATOM   1065  H1    G A  44       5.735  -2.188  -0.924  1.00  0.00     0.187 HD
ATOM   1066  C6    G A  44       7.534  -1.643  -0.085  1.00  0.00     0.292 A 
ATOM   1067  O6    G A  44       7.215  -0.455   0.037  1.00  0.00    -0.265 OA
ATOM   1068  C5    G A  44       8.752  -2.274   0.273  1.00  0.00     0.173 A 
ATOM   1069  N7    G A  44       9.904  -1.749   0.844  1.00  0.00    -0.234 NA
ATOM   1070  C8    G A  44      10.706  -2.773   0.949  1.00  0.00     0.214 A 
ATOM   1071  C2'   G A  44      11.172  -5.729  -0.940  1.00  0.00     0.199 C 
ATOM   1072  O2'   G A  44      11.005  -7.133  -1.009  1.00  0.00    -0.388 OA
ATOM   1073 'HO2   G A  44      11.748  -7.477  -1.504  1.00  0.00     0.210 HD
ATOM   1074  C3'   G A  44      12.647  -5.345  -0.981  1.00  0.00     0.198 C 
ATOM   1075  O3'   G A  44      13.386  -6.120  -1.924  1.00  0.00    -0.279 OA
ATOM   1076  P     A A  45      13.514  -5.617  -3.447  1.00  0.00     0.408 P 
ATOM   1077  OP1   A A  45      14.504  -6.499  -4.118  1.00  0.00    -0.624 OA
ATOM   1078  OP2   A A  45      13.727  -4.146  -3.445  1.00  0.00    -0.624 OA
ATOM   1079  O5'   A A  45      12.081  -5.914  -4.076  1.00  0.00    -0.287 OA
ATOM   1080  C5'   A A  45      11.607  -7.252  -4.226  1.00  0.00     0.216 C 
ATOM   1081  C4'   A A  45      10.166  -7.245  -4.687  1.00  0.00     0.180 C 
ATOM   1082  O4'   A A  45       9.377  -6.488  -3.732  1.00  0.00    -0.353 OA
ATOM   1083  C1'   A A  45       8.406  -5.717  -4.415  1.00  0.00     0.262 C 
ATOM   1084  N9    A A  45       8.673  -4.304  -4.150  1.00  0.00    -0.294 N 
ATOM   1085  C4    A A  45       7.740  -3.296  -4.118  1.00  0.00     0.167 A 
ATOM   1086  N3    A A  45       6.418  -3.404  -4.324  1.00  0.00    -0.222 NA
ATOM   1087  C2    A A  45       5.827  -2.217  -4.216  1.00  0.00     0.237 A 
ATOM   1088  N1    A A  45       6.369  -1.022  -3.946  1.00  0.00    -0.222 NA
ATOM   1089  C6    A A  45       7.703  -0.950  -3.743  1.00  0.00     0.155 A 
ATOM   1090  N6    A A  45       8.242   0.239  -3.473  1.00  0.00    -0.382 N 
ATOM   1091  H61   A A  45       9.239   0.309  -3.318  1.00  0.00     0.157 HD
ATOM   1092  H62   A A  45       7.660   1.062  -3.419  1.00  0.00     0.157 HD
ATOM   1093  C5    A A  45       8.444  -2.141  -3.831  1.00  0.00     0.149 A 
ATOM   1094  N7    A A  45       9.797  -2.413  -3.684  1.00  0.00    -0.236 NA
ATOM   1095  C8    A A  45       9.880  -3.706  -3.882  1.00  0.00     0.214 A 
ATOM   1096  C2'   A A  45       8.473  -6.087  -5.898  1.00  0.00     0.199 C 
ATOM   1097  O2'   A A  45       7.559  -7.140  -6.142  1.00  0.00    -0.388 OA
ATOM   1098 'HO2   A A  45       8.048  -7.825  -6.599  1.00  0.00     0.210 HD
ATOM   1099  C3'   A A  45       9.914  -6.566  -6.027  1.00  0.00     0.198 C 
ATOM   1100  O3'   A A  45      10.084  -7.477  -7.110  1.00  0.00    -0.279 OA
ATOM   1101  P     G A  46      10.906  -7.024  -8.417  1.00  0.00     0.408 P 
ATOM   1102  OP1   G A  46      10.902  -8.175  -9.357  1.00  0.00    -0.624 OA
ATOM   1103  OP2   G A  46      12.199  -6.443  -7.978  1.00  0.00    -0.624 OA
ATOM   1104  O5'   G A  46      10.018  -5.862  -9.050  1.00  0.00    -0.287 OA
ATOM   1105  C5'   G A  46       8.661  -6.092  -9.425  1.00  0.00     0.216 C 
ATOM   1106  C4'   G A  46       7.972  -4.780  -9.719  1.00  0.00     0.180 C 
ATOM   1107  O4'   G A  46       8.019  -3.948  -8.528  1.00  0.00    -0.353 OA
ATOM   1108  C1'   G A  46       8.243  -2.599  -8.895  1.00  0.00     0.262 C 
ATOM   1109  N9    G A  46       9.512  -2.170  -8.313  1.00  0.00    -0.293 N 
ATOM   1110  C4    G A  46       9.765  -0.970  -7.694  1.00  0.00     0.187 A 
ATOM   1111  N3    G A  46       8.877   0.031  -7.509  1.00  0.00    -0.044 NA
ATOM   1112  C2    G A  46       9.418   1.060  -6.884  1.00  0.00     0.703 A 
ATOM   1113  N2    G A  46       8.679   2.141  -6.621  1.00  0.00    -0.233 N 
ATOM   1114  H21   G A  46       7.710   2.156  -6.907  1.00  0.00     0.174 HD
ATOM   1115  H22   G A  46       9.082   2.933  -6.146  1.00  0.00     0.174 HD
ATOM   1116  N1    G A  46      10.725   1.107  -6.470  1.00  0.00    -0.153 N 
ATOM   1117  H1    G A  46      11.040   1.941  -5.998  1.00  0.00     0.187 HD
ATOM   1118  C6    G A  46      11.657   0.092  -6.650  1.00  0.00     0.292 A 
ATOM   1119  O6    G A  46      12.814   0.242  -6.240  1.00  0.00    -0.265 OA
ATOM   1120  C5    G A  46      11.091  -1.023  -7.320  1.00  0.00     0.173 A 
ATOM   1121  N7    G A  46      11.661  -2.233  -7.694  1.00  0.00    -0.234 NA
ATOM   1122  C8    G A  46      10.688  -2.878  -8.278  1.00  0.00     0.214 A 
ATOM   1123  C2'   G A  46       8.207  -2.517 -10.421  1.00  0.00     0.199 C 
ATOM   1124  O2'   G A  46       6.881  -2.240 -10.829  1.00  0.00    -0.388 OA
ATOM   1125 'HO2   G A  46       6.715  -2.784 -11.599  1.00  0.00     0.210 HD
ATOM   1126  C3'   G A  46       8.617  -3.933 -10.809  1.00  0.00     0.198 C 
ATOM   1127  O3'   G A  46       8.138  -4.300 -12.102  1.00  0.00    -0.279 OA
ATOM   1128  P     G A  47       9.182  -4.685 -13.265  1.00  0.00     0.408 P 
ATOM   1129  OP1   G A  47       8.424  -5.443 -14.293  1.00  0.00    -0.624 OA
ATOM   1130  OP2   G A  47      10.386  -5.296 -12.648  1.00  0.00    -0.624 OA
ATOM   1131  O5'   G A  47       9.597  -3.281 -13.896  1.00  0.00    -0.287 OA
ATOM   1132  C5'   G A  47       8.609  -2.316 -14.260  1.00  0.00     0.216 C 
ATOM   1133  C4'   G A  47       9.199  -0.925 -14.222  1.00  0.00     0.180 C 
ATOM   1134  O4'   G A  47       9.907  -0.757 -12.962  1.00  0.00    -0.353 OA
ATOM   1135  C1'   G A  47      11.284  -0.551 -13.210  1.00  0.00     0.262 C 
ATOM   1136  N9    G A  47      12.048  -1.293 -12.212  1.00  0.00    -0.293 N 
ATOM   1137  C4    G A  47      12.688  -0.769 -11.115  1.00  0.00     0.187 A 
ATOM   1138  N3    G A  47      12.721   0.533 -10.761  1.00  0.00    -0.044 NA
ATOM   1139  C2    G A  47      13.417   0.727  -9.656  1.00  0.00     0.703 A 
ATOM   1140  N2    G A  47      13.550   1.961  -9.164  1.00  0.00    -0.233 N 
ATOM   1141  H21   G A  47      13.114   2.733  -9.646  1.00  0.00     0.174 HD
ATOM   1142  H22   G A  47      14.082   2.118  -8.321  1.00  0.00     0.174 HD
ATOM   1143  N1    G A  47      14.036  -0.274  -8.952  1.00  0.00    -0.153 N 
ATOM   1144  H1    G A  47      14.544  -0.025  -8.118  1.00  0.00     0.187 HD
ATOM   1145  C6    G A  47      14.019  -1.621  -9.296  1.00  0.00     0.292 A 
ATOM   1146  O6    G A  47      14.617  -2.442  -8.592  1.00  0.00    -0.265 OA
ATOM   1147  C5    G A  47      13.272  -1.848 -10.482  1.00  0.00     0.173 A 
ATOM   1148  N7    G A  47      13.001  -3.025 -11.166  1.00  0.00    -0.234 NA
ATOM   1149  C8    G A  47      12.274  -2.647 -12.181  1.00  0.00     0.214 A 
ATOM   1150  C2'   G A  47      11.545  -0.992 -14.648  1.00  0.00     0.199 C 
ATOM   1151  O2'   G A  47      12.620  -0.229 -15.167  1.00  0.00    -0.388 OA
ATOM   1152 'HO2   G A  47      12.239   0.465 -15.705  1.00  0.00     0.210 HD
ATOM   1153  C3'   G A  47      10.224  -0.622 -15.311  1.00  0.00     0.198 C 
ATOM   1154  O3'   G A  47      10.175   0.749 -15.703  1.00  0.00    -0.279 OA
ATOM   1155  P     U A  48      10.385   1.150 -17.246  1.00  0.00     0.408 P 
ATOM   1156  OP1   U A  48       9.508   0.278 -18.067  1.00  0.00    -0.624 OA
ATOM   1157  OP2   U A  48      11.845   1.185 -17.515  1.00  0.00    -0.624 OA
ATOM   1158  O5'   U A  48       9.832   2.643 -17.335  1.00  0.00    -0.287 OA
ATOM   1159  C5'   U A  48       8.430   2.910 -17.348  1.00  0.00     0.216 C 
ATOM   1160  C4'   U A  48       8.184   4.381 -17.593  1.00  0.00     0.180 C 
ATOM   1161  O4'   U A  48       8.356   5.091 -16.334  1.00  0.00    -0.353 OA
ATOM   1162  C1'   U A  48       9.219   6.195 -16.520  1.00  0.00     0.264 C 
ATOM   1163  N1    U A  48      10.521   5.873 -15.918  1.00  0.00    -0.280 N 
ATOM   1164  C6    U A  48      10.788   4.614 -15.425  1.00  0.00     0.104 A 
ATOM   1165  C2    U A  48      11.474   6.874 -15.864  1.00  0.00     0.331 A 
ATOM   1166  O2    U A  48      11.275   8.001 -16.282  1.00  0.00    -0.246 OA
ATOM   1167  N3    U A  48      12.669   6.507 -15.301  1.00  0.00    -0.275 N 
ATOM   1168  H3    U A  48      13.381   7.222 -15.260  1.00  0.00     0.173 HD
ATOM   1169  C4    U A  48      13.003   5.273 -14.795  1.00  0.00     0.250 A 
ATOM   1170  O4    U A  48      14.127   5.095 -14.327  1.00  0.00    -0.268 OA
ATOM   1171  C5    U A  48      11.965   4.294 -14.880  1.00  0.00     0.092 A 
ATOM   1172  C2'   U A  48       9.276   6.460 -18.023  1.00  0.00     0.199 C 
ATOM   1173  O2'   U A  48       8.163   7.254 -18.388  1.00  0.00    -0.388 OA
ATOM   1174 'HO2   U A  48       7.707   6.780 -19.085  1.00  0.00     0.210 HD
ATOM   1175  C3'   U A  48       9.145   5.044 -18.573  1.00  0.00     0.198 C 
ATOM   1176  O3'   U A  48       8.623   5.026 -19.899  1.00  0.00    -0.279 OA
ATOM   1177  P     C A  49       9.583   4.648 -21.132  1.00  0.00     0.408 P 
ATOM   1178  OP1   C A  49       8.721   4.547 -22.337  1.00  0.00    -0.624 OA
ATOM   1179  OP2   C A  49      10.428   3.491 -20.735  1.00  0.00    -0.624 OA
ATOM   1180  O5'   C A  49      10.515   5.931 -21.301  1.00  0.00    -0.287 OA
ATOM   1181  C5'   C A  49      11.935   5.832 -21.210  1.00  0.00     0.216 C 
ATOM   1182  C4'   C A  49      12.496   7.044 -20.503  1.00  0.00     0.180 C 
ATOM   1183  O4'   C A  49      12.360   6.851 -19.066  1.00  0.00    -0.353 OA
ATOM   1184  C1'   C A  49      13.562   7.231 -18.417  1.00  0.00     0.264 C 
ATOM   1185  N1    C A  49      14.213   6.013 -17.901  1.00  0.00    -0.278 N 
ATOM   1186  C6    C A  49      13.639   4.784 -18.072  1.00  0.00     0.102 A 
ATOM   1187  C2    C A  49      15.437   6.132 -17.233  1.00  0.00     0.352 A 
ATOM   1188  O2    C A  49      15.934   7.257 -17.088  1.00  0.00    -0.244 OA
ATOM   1189  N3    C A  49      16.045   5.019 -16.765  1.00  0.00    -0.177 NA
ATOM   1190  C4    C A  49      15.477   3.825 -16.940  1.00  0.00     0.128 A 
ATOM   1191  N4    C A  49      16.114   2.758 -16.461  1.00  0.00    -0.384 N 
ATOM   1192  H41   C A  49      15.717   1.836 -16.572  1.00  0.00     0.157 HD
ATOM   1193  H42   C A  49      16.997   2.873 -15.985  1.00  0.00     0.157 HD
ATOM   1194  C5    C A  49      14.231   3.673 -17.615  1.00  0.00     0.067 A 
ATOM   1195  C2'   C A  49      14.397   7.995 -19.442  1.00  0.00     0.199 C 
ATOM   1196  O2'   C A  49      13.992   9.351 -19.442  1.00  0.00    -0.388 OA
ATOM   1197 'HO2   C A  49      13.786   9.578 -20.349  1.00  0.00     0.210 HD
ATOM   1198  C3'   C A  49      13.981   7.295 -20.728  1.00  0.00     0.198 C 
ATOM   1199  O3'   C A  49      14.204   8.096 -21.886  1.00  0.00    -0.279 OA
ATOM   1200  P     C A  50      15.246   7.606 -23.010  1.00  0.00     0.408 P 
ATOM   1201  OP1   C A  50      14.977   8.392 -24.240  1.00  0.00    -0.624 OA
ATOM   1202  OP2   C A  50      15.218   6.122 -23.066  1.00  0.00    -0.624 OA
ATOM   1203  O5'   C A  50      16.665   8.049 -22.439  1.00  0.00    -0.287 OA
ATOM   1204  C5'   C A  50      16.923   9.406 -22.082  1.00  0.00     0.216 C 
ATOM   1205  C4'   C A  50      18.204   9.498 -21.285  1.00  0.00     0.180 C 
ATOM   1206  O4'   C A  50      17.978   8.927 -19.966  1.00  0.00    -0.353 OA
ATOM   1207  C1'   C A  50      19.077   8.109 -19.604  1.00  0.00     0.264 C 
ATOM   1208  N1    C A  50      18.626   6.707 -19.580  1.00  0.00    -0.278 N 
ATOM   1209  C6    C A  50      17.434   6.345 -20.143  1.00  0.00     0.102 A 
ATOM   1210  C2    C A  50      19.437   5.748 -18.968  1.00  0.00     0.352 A 
ATOM   1211  O2    C A  50      20.515   6.100 -18.471  1.00  0.00    -0.244 OA
ATOM   1212  N3    C A  50      19.027   4.460 -18.937  1.00  0.00    -0.177 NA
ATOM   1213  C4    C A  50      17.862   4.117 -19.486  1.00  0.00     0.128 A 
ATOM   1214  N4    C A  50      17.498   2.837 -19.429  1.00  0.00    -0.384 N 
ATOM   1215  H41   C A  50      16.624   2.536 -19.832  1.00  0.00     0.157 HD
ATOM   1216  H42   C A  50      18.104   2.168 -18.974  1.00  0.00     0.157 HD
ATOM   1217  C5    C A  50      17.016   5.073 -20.119  1.00  0.00     0.067 A 
ATOM   1218  C2'   C A  50      20.192   8.383 -20.612  1.00  0.00     0.199 C 
ATOM   1219  O2'   C A  50      20.940   9.499 -20.172  1.00  0.00    -0.388 OA
ATOM   1220 'HO2   C A  50      20.972  10.117 -20.903  1.00  0.00     0.210 HD
ATOM   1221  C3'   C A  50      19.379   8.718 -21.857  1.00  0.00     0.198 C 
ATOM   1222  O3'   C A  50      20.113   9.497 -22.795  1.00  0.00    -0.279 OA
ATOM   1223  P     C A  51      20.745   8.797 -24.098  1.00  0.00     0.408 P 
ATOM   1224  OP1   C A  51      21.152   9.879 -25.029  1.00  0.00    -0.624 OA
ATOM   1225  OP2   C A  51      19.818   7.735 -24.567  1.00  0.00    -0.624 OA
ATOM   1226  O5'   C A  51      22.066   8.093 -23.552  1.00  0.00    -0.287 OA
ATOM   1227  C5'   C A  51      23.122   8.860 -22.976  1.00  0.00     0.216 C 
ATOM   1228  C4'   C A  51      24.238   7.950 -22.520  1.00  0.00     0.180 C 
ATOM   1229  O4'   C A  51      23.783   7.203 -21.358  1.00  0.00    -0.353 OA
ATOM   1230  C1'   C A  51      24.195   5.851 -21.464  1.00  0.00     0.264 C 
ATOM   1231  N1    C A  51      22.998   5.011 -21.639  1.00  0.00    -0.278 N 
ATOM   1232  C6    C A  51      21.857   5.522 -22.194  1.00  0.00     0.102 A 
ATOM   1233  C2    C A  51      23.046   3.677 -21.230  1.00  0.00     0.352 A 
ATOM   1234  O2    C A  51      24.091   3.240 -20.726  1.00  0.00    -0.244 OA
ATOM   1235  N3    C A  51      21.956   2.895 -21.392  1.00  0.00    -0.177 NA
ATOM   1236  C4    C A  51      20.849   3.401 -21.937  1.00  0.00     0.128 A 
ATOM   1237  N4    C A  51      19.801   2.591 -22.080  1.00  0.00    -0.384 N 
ATOM   1238  H41   C A  51      18.943   2.934 -22.490  1.00  0.00     0.157 HD
ATOM   1239  H42   C A  51      19.869   1.629 -21.780  1.00  0.00     0.157 HD
ATOM   1240  C5    C A  51      20.768   4.760 -22.360  1.00  0.00     0.067 A 
ATOM   1241  C2'   C A  51      25.178   5.767 -22.631  1.00  0.00     0.199 C 
ATOM   1242  O2'   C A  51      26.480   6.049 -22.154  1.00  0.00    -0.388 OA
ATOM   1243 'HO2   C A  51      26.858   6.688 -22.758  1.00  0.00     0.210 HD
ATOM   1244  C3'   C A  51      24.666   6.888 -23.526  1.00  0.00     0.198 C 
ATOM   1245  O3'   C A  51      25.674   7.381 -24.406  1.00  0.00    -0.279 OA
ATOM   1246  P     A A  52      25.887   6.689 -25.843  1.00  0.00     0.408 P 
ATOM   1247  OP1   A A  52      26.899   7.494 -26.573  1.00  0.00    -0.624 OA
ATOM   1248  OP2   A A  52      24.554   6.457 -26.454  1.00  0.00    -0.624 OA
ATOM   1249  O5'   A A  52      26.528   5.271 -25.497  1.00  0.00    -0.287 OA
ATOM   1250  C5'   A A  52      27.883   5.158 -25.058  1.00  0.00     0.216 C 
ATOM   1251  C4'   A A  52      28.394   3.757 -25.300  1.00  0.00     0.180 C 
ATOM   1252  O4'   A A  52      27.812   2.874 -24.303  1.00  0.00    -0.353 OA
ATOM   1253  C1'   A A  52      27.427   1.655 -24.908  1.00  0.00     0.262 C 
ATOM   1254  N9    A A  52      25.972   1.538 -24.822  1.00  0.00    -0.294 N 
ATOM   1255  C4    A A  52      25.270   0.399 -24.517  1.00  0.00     0.167 A 
ATOM   1256  N3    A A  52      25.772  -0.817 -24.240  1.00  0.00    -0.222 NA
ATOM   1257  C2    A A  52      24.794  -1.683 -23.996  1.00  0.00     0.237 A 
ATOM   1258  N1    A A  52      23.469  -1.485 -23.995  1.00  0.00    -0.222 NA
ATOM   1259  C6    A A  52      22.997  -0.253 -24.276  1.00  0.00     0.155 A 
ATOM   1260  N6    A A  52      21.678  -0.061 -24.273  1.00  0.00    -0.382 N 
ATOM   1261  H61   A A  52      21.302   0.852 -24.480  1.00  0.00     0.157 HD
ATOM   1262  H62   A A  52      21.055  -0.830 -24.066  1.00  0.00     0.157 HD
ATOM   1263  C5    A A  52      23.935   0.756 -24.556  1.00  0.00     0.149 A 
ATOM   1264  N7    A A  52      23.795   2.100 -24.878  1.00  0.00    -0.236 NA
ATOM   1265  C8    A A  52      25.030   2.517 -25.025  1.00  0.00     0.214 A 
ATOM   1266  C2'   A A  52      27.960   1.655 -26.340  1.00  0.00     0.199 C 
ATOM   1267  O2'   A A  52      29.256   1.083 -26.337  1.00  0.00    -0.388 OA
ATOM   1268 'HO2   A A  52      29.328   0.571 -27.144  1.00  0.00     0.210 HD
ATOM   1269  C3'   A A  52      28.009   3.148 -26.643  1.00  0.00     0.198 C 
ATOM   1270  O3'   A A  52      28.964   3.466 -27.652  1.00  0.00    -0.279 OA
ATOM   1271  P     G A  53      28.709   3.000 -29.170  1.00  0.00     0.408 P 
ATOM   1272  OP1   G A  53      29.841   3.508 -29.987  1.00  0.00    -0.624 OA
ATOM   1273  OP2   G A  53      27.317   3.363 -29.542  1.00  0.00    -0.624 OA
ATOM   1274  O5'   G A  53      28.818   1.411 -29.112  1.00  0.00    -0.287 OA
ATOM   1275  C5'   G A  53      27.932   0.582 -29.864  1.00  0.00     0.216 C 
ATOM   1276  C4'   G A  53      27.996  -0.841 -29.359  1.00  0.00     0.180 C 
ATOM   1277  O4'   G A  53      27.394  -0.897 -28.036  1.00  0.00    -0.353 OA
ATOM   1278  C1'   G A  53      26.622  -2.078 -27.910  1.00  0.00     0.262 C 
ATOM   1279  N9    G A  53      25.223  -1.697 -27.742  1.00  0.00    -0.293 N 
ATOM   1280  C4    G A  53      24.156  -2.551 -27.596  1.00  0.00     0.187 A 
ATOM   1281  N3    G A  53      24.216  -3.900 -27.580  1.00  0.00    -0.044 NA
ATOM   1282  C2    G A  53      23.023  -4.444 -27.426  1.00  0.00     0.703 A 
ATOM   1283  N2    G A  53      22.899  -5.772 -27.387  1.00  0.00    -0.233 N 
ATOM   1284  H21   G A  53      23.720  -6.354 -27.477  1.00  0.00     0.174 HD
ATOM   1285  H22   G A  53      21.987  -6.194 -27.270  1.00  0.00     0.174 HD
ATOM   1286  N1    G A  53      21.862  -3.725 -27.297  1.00  0.00    -0.153 N 
ATOM   1287  H1    G A  53      21.005  -4.242 -27.184  1.00  0.00     0.187 HD
ATOM   1288  C6    G A  53      21.774  -2.338 -27.311  1.00  0.00     0.292 A 
ATOM   1289  O6    G A  53      20.672  -1.791 -27.188  1.00  0.00    -0.265 OA
ATOM   1290  C5    G A  53      23.050  -1.737 -27.476  1.00  0.00     0.173 A 
ATOM   1291  N7    G A  53      23.413  -0.399 -27.543  1.00  0.00    -0.234 NA
ATOM   1292  C8    G A  53      24.707  -0.426 -27.699  1.00  0.00     0.214 A 
ATOM   1293  C2'   G A  53      26.881  -2.930 -29.153  1.00  0.00     0.199 C 
ATOM   1294  O2'   G A  53      27.995  -3.769 -28.906  1.00  0.00    -0.388 OA
ATOM   1295 'HO2   G A  53      28.589  -3.665 -29.651  1.00  0.00     0.210 HD
ATOM   1296  C3'   G A  53      27.216  -1.857 -30.182  1.00  0.00     0.198 C 
ATOM   1297  O3'   G A  53      27.996  -2.368 -31.261  1.00  0.00    -0.279 OA
ATOM   1298  P     A A  54      27.394  -2.382 -32.753  1.00  0.00     0.408 P 
ATOM   1299  OP1   A A  54      28.546  -2.305 -33.685  1.00  0.00    -0.624 OA
ATOM   1300  OP2   A A  54      26.314  -1.366 -32.842  1.00  0.00    -0.624 OA
ATOM   1301  O5'   A A  54      26.744  -3.831 -32.894  1.00  0.00    -0.287 OA
ATOM   1302  C5'   A A  54      25.481  -4.016 -33.536  1.00  0.00     0.216 C 
ATOM   1303  C4'   A A  54      24.794  -5.241 -32.983  1.00  0.00     0.180 C 
ATOM   1304  O4'   A A  54      24.399  -4.970 -31.610  1.00  0.00    -0.353 OA
ATOM   1305  C1'   A A  54      23.096  -5.474 -31.376  1.00  0.00     0.262 C 
ATOM   1306  N9    A A  54      22.203  -4.342 -31.131  1.00  0.00    -0.294 N 
ATOM   1307  C4    A A  54      20.856  -4.413 -30.863  1.00  0.00     0.167 A 
ATOM   1308  N3    A A  54      20.102  -5.522 -30.772  1.00  0.00    -0.222 NA
ATOM   1309  C2    A A  54      18.837  -5.208 -30.506  1.00  0.00     0.237 A 
ATOM   1310  N1    A A  54      18.281  -4.001 -30.335  1.00  0.00    -0.222 NA
ATOM   1311  C6    A A  54      19.066  -2.908 -30.431  1.00  0.00     0.155 A 
ATOM   1312  N6    A A  54      18.509  -1.708 -30.258  1.00  0.00    -0.382 N 
ATOM   1313  H61   A A  54      19.079  -0.876 -30.325  1.00  0.00     0.157 HD
ATOM   1314  H62   A A  54      17.521  -1.630 -30.062  1.00  0.00     0.157 HD
ATOM   1315  C5    A A  54      20.432  -3.106 -30.711  1.00  0.00     0.149 A 
ATOM   1316  N7    A A  54      21.492  -2.224 -30.876  1.00  0.00    -0.236 NA
ATOM   1317  C8    A A  54      22.515  -3.004 -31.122  1.00  0.00     0.214 A 
ATOM   1318  C2'   A A  54      22.706  -6.317 -32.589  1.00  0.00     0.199 C 
ATOM   1319  O2'   A A  54      23.144  -7.647 -32.379  1.00  0.00    -0.388 OA
ATOM   1320 'HO2   A A  54      23.599  -7.914 -33.178  1.00  0.00     0.210 HD
ATOM   1321  C3'   A A  54      23.508  -5.641 -33.695  1.00  0.00     0.198 C 
ATOM   1322  O3'   A A  54      23.769  -6.522 -34.789  1.00  0.00    -0.279 OA
ATOM   1323  P     U A  55      22.847  -6.462 -36.108  1.00  0.00     0.408 P 
ATOM   1324  OP1   U A  55      23.677  -6.935 -37.245  1.00  0.00    -0.624 OA
ATOM   1325  OP2   U A  55      22.197  -5.127 -36.181  1.00  0.00    -0.624 OA
ATOM   1326  O5'   U A  55      21.718  -7.556 -35.844  1.00  0.00    -0.287 OA
ATOM   1327  C5'   U A  55      20.581  -7.263 -35.033  1.00  0.00     0.216 C 
ATOM   1328  C4'   U A  55      19.314  -7.363 -35.851  1.00  0.00     0.180 C 
ATOM   1329  O4'   U A  55      18.259  -6.640 -35.159  1.00  0.00    -0.353 OA
ATOM   1330  C1'   U A  55      17.493  -5.896 -36.090  1.00  0.00     0.264 C 
ATOM   1331  N1    U A  55      17.706  -4.465 -35.828  1.00  0.00    -0.280 N 
ATOM   1332  C6    U A  55      18.935  -3.989 -35.430  1.00  0.00     0.104 A 
ATOM   1333  C2    U A  55      16.631  -3.612 -35.994  1.00  0.00     0.331 A 
ATOM   1334  O2    U A  55      15.528  -3.994 -36.338  1.00  0.00    -0.246 OA
ATOM   1335  N3    U A  55      16.895  -2.291 -35.738  1.00  0.00    -0.275 N 
ATOM   1336  H3    U A  55      16.130  -1.647 -35.871  1.00  0.00     0.173 HD
ATOM   1337  C4    U A  55      18.095  -1.748 -35.336  1.00  0.00     0.250 A 
ATOM   1338  O4    U A  55      18.173  -0.538 -35.132  1.00  0.00    -0.268 OA
ATOM   1339  C5    U A  55      19.154  -2.694 -35.186  1.00  0.00     0.092 A 
ATOM   1340  C2'   U A  55      17.924  -6.335 -37.488  1.00  0.00     0.199 C 
ATOM   1341  O2'   U A  55      17.140  -7.450 -37.873  1.00  0.00    -0.388 OA
ATOM   1342 'HO2   U A  55      17.729  -8.065 -38.311  1.00  0.00     0.210 HD
ATOM   1343  C3'   U A  55      19.374  -6.736 -37.240  1.00  0.00     0.198 C 
ATOM   1344  O3'   U A  55      19.852  -7.658 -38.214  1.00  0.00    -0.279 OA
ATOM   1345  P     U A  56      20.380  -7.118 -39.636  1.00  0.00     0.408 P 
ATOM   1346  OP1   U A  56      21.046  -8.254 -40.322  1.00  0.00    -0.624 OA
ATOM   1347  OP2   U A  56      21.133  -5.859 -39.401  1.00  0.00    -0.624 OA
ATOM   1348  O5'   U A  56      19.045  -6.772 -40.437  1.00  0.00    -0.287 OA
ATOM   1349  C5'   U A  56      19.003  -5.698 -41.379  1.00  0.00     0.216 C 
ATOM   1350  C4'   U A  56      17.683  -4.967 -41.279  1.00  0.00     0.180 C 
ATOM   1351  O4'   U A  56      17.452  -4.610 -39.888  1.00  0.00    -0.353 OA
ATOM   1352  C1'   U A  56      16.937  -3.294 -39.806  1.00  0.00     0.264 C 
ATOM   1353  N1    U A  56      17.939  -2.444 -39.145  1.00  0.00    -0.280 N 
ATOM   1354  C6    U A  56      19.234  -2.874 -38.966  1.00  0.00     0.104 A 
ATOM   1355  C2    U A  56      17.536  -1.195 -38.713  1.00  0.00     0.331 A 
ATOM   1356  O2    U A  56      16.398  -0.782 -38.845  1.00  0.00    -0.246 OA
ATOM   1357  N3    U A  56      18.517  -0.445 -38.116  1.00  0.00    -0.275 N 
ATOM   1358  H3    U A  56      18.251   0.474 -37.802  1.00  0.00     0.173 HD
ATOM   1359  C4    U A  56      19.826  -0.809 -37.908  1.00  0.00     0.250 A 
ATOM   1360  O4    U A  56      20.590  -0.022 -37.350  1.00  0.00    -0.268 OA
ATOM   1361  C5    U A  56      20.163  -2.116 -38.378  1.00  0.00     0.092 A 
ATOM   1362  C2'   U A  56      16.597  -2.847 -41.228  1.00  0.00     0.199 C 
ATOM   1363  O2'   U A  56      15.271  -3.246 -41.524  1.00  0.00    -0.388 OA
ATOM   1364 'HO2   U A  56      15.332  -4.014 -42.092  1.00  0.00     0.210 HD
ATOM   1365  C3'   U A  56      17.608  -3.648 -42.039  1.00  0.00     0.198 C 
ATOM   1366  O3'   U A  56      17.181  -3.841 -43.385  1.00  0.00    -0.279 OA
ATOM   1367  P     C A  57      17.807  -2.940 -44.562  1.00  0.00     0.408 P 
ATOM   1368  OP1   C A  57      16.874  -3.012 -45.715  1.00  0.00    -0.624 OA
ATOM   1369  OP2   C A  57      19.227  -3.337 -44.742  1.00  0.00    -0.624 OA
ATOM   1370  O5'   C A  57      17.768  -1.454 -43.983  1.00  0.00    -0.287 OA
ATOM   1371  C5'   C A  57      18.800  -0.516 -44.288  1.00  0.00     0.216 C 
ATOM   1372  C4'   C A  57      18.206   0.847 -44.564  1.00  0.00     0.180 C 
ATOM   1373  O4'   C A  57      17.258   0.732 -45.662  1.00  0.00    -0.353 OA
ATOM   1374  C1'   C A  57      16.110   1.515 -45.389  1.00  0.00     0.264 C 
ATOM   1375  N1    C A  57      14.960   0.612 -45.226  1.00  0.00    -0.278 N 
ATOM   1376  C6    C A  57      15.097  -0.583 -44.577  1.00  0.00     0.102 A 
ATOM   1377  C2    C A  57      13.720   0.996 -45.743  1.00  0.00     0.352 A 
ATOM   1378  O2    C A  57      13.623   2.084 -46.329  1.00  0.00    -0.244 OA
ATOM   1379  N3    C A  57      12.658   0.172 -45.592  1.00  0.00    -0.177 NA
ATOM   1380  C4    C A  57      12.803  -0.991 -44.956  1.00  0.00     0.128 A 
ATOM   1381  N4    C A  57      11.728  -1.767 -44.828  1.00  0.00    -0.384 N 
ATOM   1382  H41   C A  57      11.801  -2.654 -44.351  1.00  0.00     0.157 HD
ATOM   1383  H42   C A  57      10.845  -1.463 -45.210  1.00  0.00     0.157 HD
ATOM   1384  C5    C A  57      14.055  -1.409 -44.422  1.00  0.00     0.067 A 
ATOM   1385  C2'   C A  57      16.413   2.355 -44.149  1.00  0.00     0.199 C 
ATOM   1386  O2'   C A  57      17.022   3.567 -44.555  1.00  0.00    -0.388 OA
ATOM   1387 'HO2   C A  57      17.719   3.748 -43.924  1.00  0.00     0.210 HD
ATOM   1388  C3'   C A  57      17.405   1.458 -43.420  1.00  0.00     0.198 C 
ATOM   1389  O3'   C A  57      18.241   2.192 -42.528  1.00  0.00    -0.279 OA
ATOM   1390  P     G A  58      18.448   1.678 -41.017  1.00  0.00     0.408 P 
ATOM   1391  OP1   G A  58      19.651   2.365 -40.482  1.00  0.00    -0.624 OA
ATOM   1392  OP2   G A  58      18.389   0.194 -41.013  1.00  0.00    -0.624 OA
ATOM   1393  O5'   G A  58      17.173   2.235 -40.240  1.00  0.00    -0.287 OA
ATOM   1394  C5'   G A  58      17.013   3.633 -39.995  1.00  0.00     0.216 C 
ATOM   1395  C4'   G A  58      15.643   3.911 -39.422  1.00  0.00     0.180 C 
ATOM   1396  O4'   G A  58      14.655   3.726 -40.473  1.00  0.00    -0.353 OA
ATOM   1397  C1'   G A  58      13.544   3.009 -39.968  1.00  0.00     0.262 C 
ATOM   1398  N9    G A  58      13.516   1.696 -40.606  1.00  0.00    -0.293 N 
ATOM   1399  C4    G A  58      12.500   0.774 -40.538  1.00  0.00     0.187 A 
ATOM   1400  N3    G A  58      11.341   0.919 -39.863  1.00  0.00    -0.044 NA
ATOM   1401  C2    G A  58      10.563  -0.141 -39.985  1.00  0.00     0.703 A 
ATOM   1402  N2    G A  58       9.375  -0.165 -39.375  1.00  0.00    -0.233 N 
ATOM   1403  H21   G A  58       9.088   0.633 -38.826  1.00  0.00     0.174 HD
ATOM   1404  H22   G A  58       8.772  -0.968 -39.459  1.00  0.00     0.174 HD
ATOM   1405  N1    G A  58      10.890  -1.255 -40.714  1.00  0.00    -0.153 N 
ATOM   1406  H1    G A  58      10.225  -2.011 -40.744  1.00  0.00     0.187 HD
ATOM   1407  C6    G A  58      12.076  -1.427 -41.421  1.00  0.00     0.292 A 
ATOM   1408  O6    G A  58      12.268  -2.474 -42.050  1.00  0.00    -0.265 OA
ATOM   1409  C5    G A  58      12.926  -0.297 -41.296  1.00  0.00     0.173 A 
ATOM   1410  N7    G A  58      14.185  -0.054 -41.829  1.00  0.00    -0.234 NA
ATOM   1411  C8    G A  58      14.493   1.136 -41.392  1.00  0.00     0.214 A 
ATOM   1412  C2'   G A  58      13.689   2.950 -38.449  1.00  0.00     0.199 C 
ATOM   1413  O2'   G A  58      13.093   4.104 -37.889  1.00  0.00    -0.388 OA
ATOM   1414 'HO2   G A  58      13.590   4.311 -37.096  1.00  0.00     0.210 HD
ATOM   1415  C3'   G A  58      15.205   2.984 -38.294  1.00  0.00     0.198 C 
ATOM   1416  O3'   G A  58      15.602   3.485 -37.019  1.00  0.00    -0.279 OA
ATOM   1417  P     A A  59      16.868   2.840 -36.267  1.00  0.00     0.408 P 
ATOM   1418  OP1   A A  59      18.079   3.565 -36.731  1.00  0.00    -0.624 OA
ATOM   1419  OP2   A A  59      16.794   1.366 -36.415  1.00  0.00    -0.624 OA
ATOM   1420  O5'   A A  59      16.634   3.195 -34.730  1.00  0.00    -0.287 OA
ATOM   1421  C5'   A A  59      16.095   4.457 -34.335  1.00  0.00     0.216 C 
ATOM   1422  C4'   A A  59      14.864   4.254 -33.483  1.00  0.00     0.180 C 
ATOM   1423  O4'   A A  59      14.006   3.263 -34.118  1.00  0.00    -0.353 OA
ATOM   1424  C1'   A A  59      13.417   2.435 -33.129  1.00  0.00     0.262 C 
ATOM   1425  N9    A A  59      13.899   1.068 -33.319  1.00  0.00    -0.294 N 
ATOM   1426  C4    A A  59      13.174  -0.081 -33.110  1.00  0.00     0.167 A 
ATOM   1427  N3    A A  59      11.900  -0.175 -32.695  1.00  0.00    -0.222 NA
ATOM   1428  C2    A A  59      11.528  -1.450 -32.605  1.00  0.00     0.237 A 
ATOM   1429  N1    A A  59      12.234  -2.558 -32.865  1.00  0.00    -0.222 NA
ATOM   1430  C6    A A  59      13.511  -2.428 -33.282  1.00  0.00     0.155 A 
ATOM   1431  N6    A A  59      14.210  -3.533 -33.542  1.00  0.00    -0.382 N 
ATOM   1432  H61   A A  59      15.166  -3.462 -33.857  1.00  0.00     0.157 HD
ATOM   1433  H62   A A  59      13.777  -4.438 -33.429  1.00  0.00     0.157 HD
ATOM   1434  C5    A A  59      14.026  -1.126 -33.416  1.00  0.00     0.149 A 
ATOM   1435  N7    A A  59      15.268  -0.648 -33.811  1.00  0.00    -0.236 NA
ATOM   1436  C8    A A  59      15.142   0.655 -33.736  1.00  0.00     0.214 A 
ATOM   1437  C2'   A A  59      13.771   3.037 -31.770  1.00  0.00     0.199 C 
ATOM   1438  O2'   A A  59      12.745   3.961 -31.468  1.00  0.00    -0.388 OA
ATOM   1439 'HO2   A A  59      12.777   4.641 -32.142  1.00  0.00     0.210 HD
ATOM   1440  C3'   A A  59      15.115   3.686 -32.093  1.00  0.00     0.198 C 
ATOM   1441  O3'   A A  59      15.570   4.687 -31.164  1.00  0.00    -0.279 OA
ATOM   1442  P     G A  60      14.558   5.796 -30.572  1.00  0.00     0.408 P 
ATOM   1443  OP1   G A  60      13.614   6.215 -31.640  1.00  0.00    -0.624 OA
ATOM   1444  OP2   G A  60      15.390   6.824 -29.896  1.00  0.00    -0.624 OA
ATOM   1445  O5'   G A  60      13.748   5.019 -29.441  1.00  0.00    -0.287 OA
ATOM   1446  C5'   G A  60      12.503   5.515 -28.955  1.00  0.00     0.216 C 
ATOM   1447  C4'   G A  60      12.153   4.849 -27.644  1.00  0.00     0.180 C 
ATOM   1448  O4'   G A  60      10.972   5.501 -27.105  1.00  0.00    -0.353 OA
ATOM   1449  C1'   G A  60      10.079   4.533 -26.590  1.00  0.00     0.262 C 
ATOM   1450  N9    G A  60       8.852   4.577 -27.380  1.00  0.00    -0.293 N 
ATOM   1451  C4    G A  60       8.753   4.515 -28.749  1.00  0.00     0.187 A 
ATOM   1452  N3    G A  60       9.781   4.397 -29.615  1.00  0.00    -0.044 NA
ATOM   1453  C2    G A  60       9.368   4.366 -30.868  1.00  0.00     0.703 A 
ATOM   1454  N2    G A  60      10.259   4.249 -31.854  1.00  0.00    -0.233 N 
ATOM   1455  H21   G A  60      11.242   4.187 -31.620  1.00  0.00     0.174 HD
ATOM   1456  H22   G A  60       9.961   4.215 -32.817  1.00  0.00     0.174 HD
ATOM   1457  N1    G A  60       8.054   4.444 -31.248  1.00  0.00    -0.153 N 
ATOM   1458  H1    G A  60       7.849   4.411 -32.233  1.00  0.00     0.187 HD
ATOM   1459  C6    G A  60       6.977   4.564 -30.376  1.00  0.00     0.292 A 
ATOM   1460  O6    G A  60       5.828   4.624 -30.826  1.00  0.00    -0.265 OA
ATOM   1461  C5    G A  60       7.404   4.599 -29.022  1.00  0.00     0.173 A 
ATOM   1462  N7    G A  60       6.668   4.710 -27.850  1.00  0.00    -0.234 NA
ATOM   1463  C8    G A  60       7.569   4.692 -26.905  1.00  0.00     0.214 A 
ATOM   1464  C2'   G A  60      10.784   3.177 -26.615  1.00  0.00     0.199 C 
ATOM   1465  O2'   G A  60      11.436   2.986 -25.373  1.00  0.00    -0.388 OA
ATOM   1466 'HO2   G A  60      12.377   2.999 -25.553  1.00  0.00     0.210 HD
ATOM   1467  C3'   G A  60      11.797   3.369 -27.741  1.00  0.00     0.198 C 
ATOM   1468  O3'   G A  60      12.956   2.556 -27.570  1.00  0.00    -0.279 OA
ATOM   1469  P     U A  61      12.895   0.986 -27.920  1.00  0.00     0.408 P 
ATOM   1470  OP1   U A  61      13.748   0.282 -26.927  1.00  0.00    -0.624 OA
ATOM   1471  OP2   U A  61      13.166   0.812 -29.369  1.00  0.00    -0.624 OA
ATOM   1472  O5'   U A  61      11.378   0.578 -27.655  1.00  0.00    -0.287 OA
ATOM   1473  C5'   U A  61      10.957   0.067 -26.390  1.00  0.00     0.216 C 
ATOM   1474  C4'   U A  61       9.521  -0.398 -26.470  1.00  0.00     0.180 C 
ATOM   1475  O4'   U A  61       8.716   0.672 -27.041  1.00  0.00    -0.353 OA
ATOM   1476  C1'   U A  61       7.810   0.138 -27.989  1.00  0.00     0.264 C 
ATOM   1477  N1    U A  61       8.197   0.618 -29.324  1.00  0.00    -0.280 N 
ATOM   1478  C6    U A  61       9.513   0.866 -29.641  1.00  0.00     0.104 A 
ATOM   1479  C2    U A  61       7.193   0.812 -30.255  1.00  0.00     0.331 A 
ATOM   1480  O2    U A  61       6.018   0.608 -30.014  1.00  0.00    -0.246 OA
ATOM   1481  N3    U A  61       7.617   1.254 -31.480  1.00  0.00    -0.275 N 
ATOM   1482  H3    U A  61       6.899   1.399 -32.174  1.00  0.00     0.173 HD
ATOM   1483  C4    U A  61       8.911   1.517 -31.865  1.00  0.00     0.250 A 
ATOM   1484  O4    U A  61       9.132   1.919 -33.007  1.00  0.00    -0.268 OA
ATOM   1485  C5    U A  61       9.890   1.296 -30.847  1.00  0.00     0.092 A 
ATOM   1486  C2'   U A  61       7.847  -1.383 -27.848  1.00  0.00     0.199 C 
ATOM   1487  O2'   U A  61       6.914  -1.771 -26.860  1.00  0.00    -0.388 OA
ATOM   1488 'HO2   U A  61       7.414  -2.188 -26.157  1.00  0.00     0.210 HD
ATOM   1489  C3'   U A  61       9.278  -1.602 -27.372  1.00  0.00     0.198 C 
ATOM   1490  O3'   U A  61       9.426  -2.826 -26.659  1.00  0.00    -0.279 OA
ATOM   1491  P     U A  62      10.754  -3.712 -26.853  1.00  0.00     0.408 P 
ATOM   1492  OP1   U A  62      10.806  -4.672 -25.721  1.00  0.00    -0.624 OA
ATOM   1493  OP2   U A  62      11.906  -2.807 -27.100  1.00  0.00    -0.624 OA
ATOM   1494  O5'   U A  62      10.480  -4.526 -28.196  1.00  0.00    -0.287 OA
ATOM   1495  C5'   U A  62      10.059  -5.890 -28.164  1.00  0.00     0.216 C 
ATOM   1496  C4'   U A  62      11.225  -6.805 -28.465  1.00  0.00     0.180 C 
ATOM   1497  O4'   U A  62      11.788  -6.444 -29.758  1.00  0.00    -0.353 OA
ATOM   1498  C1'   U A  62      13.202  -6.536 -29.706  1.00  0.00     0.264 C 
ATOM   1499  N1    U A  62      13.768  -5.188 -29.854  1.00  0.00    -0.280 N 
ATOM   1500  C6    U A  62      12.975  -4.064 -29.805  1.00  0.00     0.104 A 
ATOM   1501  C2    U A  62      15.135  -5.087 -30.036  1.00  0.00     0.331 A 
ATOM   1502  O2    U A  62      15.869  -6.055 -30.095  1.00  0.00    -0.246 OA
ATOM   1503  N3    U A  62      15.612  -3.807 -30.146  1.00  0.00    -0.275 N 
ATOM   1504  H3    U A  62      16.608  -3.715 -30.276  1.00  0.00     0.173 HD
ATOM   1505  C4    U A  62      14.883  -2.644 -30.097  1.00  0.00     0.250 A 
ATOM   1506  O4    U A  62      15.466  -1.563 -30.188  1.00  0.00    -0.268 OA
ATOM   1507  C5    U A  62      13.476  -2.830 -29.916  1.00  0.00     0.092 A 
ATOM   1508  C2'   U A  62      13.559  -7.193 -28.375  1.00  0.00     0.199 C 
ATOM   1509  O2'   U A  62      13.535  -8.599 -28.537  1.00  0.00    -0.388 OA
ATOM   1510 'HO2   U A  62      13.090  -8.960 -27.770  1.00  0.00     0.210 HD
ATOM   1511  C3'   U A  62      12.405  -6.716 -27.505  1.00  0.00     0.198 C 
ATOM   1512  O3'   U A  62      12.226  -7.530 -26.349  1.00  0.00    -0.279 OA
ATOM   1513  P     C A  63      13.150  -7.290 -25.054  1.00  0.00     0.408 P 
ATOM   1514  OP1   C A  63      12.675  -8.211 -23.990  1.00  0.00    -0.624 OA
ATOM   1515  OP2   C A  63      13.219  -5.832 -24.785  1.00  0.00    -0.624 OA
ATOM   1516  O5'   C A  63      14.599  -7.768 -25.519  1.00  0.00    -0.287 OA
ATOM   1517  C5'   C A  63      14.969  -9.146 -25.482  1.00  0.00     0.216 C 
ATOM   1518  C4'   C A  63      16.463  -9.292 -25.657  1.00  0.00     0.180 C 
ATOM   1519  O4'   C A  63      16.880  -8.544 -26.832  1.00  0.00    -0.353 OA
ATOM   1520  C1'   C A  63      18.150  -7.959 -26.601  1.00  0.00     0.264 C 
ATOM   1521  N1    C A  63      18.015  -6.496 -26.696  1.00  0.00    -0.278 N 
ATOM   1522  C6    C A  63      16.791  -5.896 -26.594  1.00  0.00     0.102 A 
ATOM   1523  C2    C A  63      19.163  -5.725 -26.892  1.00  0.00     0.352 A 
ATOM   1524  O2    C A  63      20.262  -6.292 -26.984  1.00  0.00    -0.244 OA
ATOM   1525  N3    C A  63      19.051  -4.381 -26.975  1.00  0.00    -0.177 NA
ATOM   1526  C4    C A  63      17.853  -3.805 -26.871  1.00  0.00     0.128 A 
ATOM   1527  N4    C A  63      17.792  -2.476 -26.957  1.00  0.00    -0.384 N 
ATOM   1528  H41   C A  63      16.905  -2.001 -26.883  1.00  0.00     0.157 HD
ATOM   1529  H42   C A  63      18.643  -1.948 -27.090  1.00  0.00     0.157 HD
ATOM   1530  C5    C A  63      16.664  -4.565 -26.675  1.00  0.00     0.067 A 
ATOM   1531  C2'   C A  63      18.638  -8.439 -25.234  1.00  0.00     0.199 C 
ATOM   1532  O2'   C A  63      19.391  -9.624 -25.413  1.00  0.00    -0.388 OA
ATOM   1533 'HO2   C A  63      19.041 -10.272 -24.803  1.00  0.00     0.210 HD
ATOM   1534  C3'   C A  63      17.316  -8.723 -24.531  1.00  0.00     0.198 C 
ATOM   1535  O3'   C A  63      17.460  -9.651 -23.457  1.00  0.00    -0.279 OA
ATOM   1536  P     U A  64      17.891  -9.124 -22.000  1.00  0.00     0.408 P 
ATOM   1537  OP1   U A  64      17.885 -10.292 -21.084  1.00  0.00    -0.624 OA
ATOM   1538  OP2   U A  64      17.072  -7.929 -21.672  1.00  0.00    -0.624 OA
ATOM   1539  O5'   U A  64      19.401  -8.649 -22.193  1.00  0.00    -0.287 OA
ATOM   1540  C5'   U A  64      20.441  -9.591 -22.450  1.00  0.00     0.216 C 
ATOM   1541  C4'   U A  64      21.784  -8.996 -22.092  1.00  0.00     0.180 C 
ATOM   1542  O4'   U A  64      22.225  -8.137 -23.180  1.00  0.00    -0.353 OA
ATOM   1543  C1'   U A  64      22.862  -6.986 -22.651  1.00  0.00     0.264 C 
ATOM   1544  N1    U A  64      22.058  -5.807 -23.001  1.00  0.00    -0.280 N 
ATOM   1545  C6    U A  64      20.680  -5.861 -23.034  1.00  0.00     0.104 A 
ATOM   1546  C2    U A  64      22.728  -4.635 -23.293  1.00  0.00     0.331 A 
ATOM   1547  O2    U A  64      23.943  -4.544 -23.275  1.00  0.00    -0.246 OA
ATOM   1548  N3    U A  64      21.925  -3.570 -23.609  1.00  0.00    -0.275 N 
ATOM   1549  H3    U A  64      22.397  -2.704 -23.820  1.00  0.00     0.173 HD
ATOM   1550  C4    U A  64      20.552  -3.553 -23.662  1.00  0.00     0.250 A 
ATOM   1551  O4    U A  64      19.973  -2.513 -23.974  1.00  0.00    -0.268 OA
ATOM   1552  C5    U A  64      19.930  -4.800 -23.346  1.00  0.00     0.092 A 
ATOM   1553  C2'   U A  64      23.008  -7.206 -21.145  1.00  0.00     0.199 C 
ATOM   1554  O2'   U A  64      24.218  -7.898 -20.900  1.00  0.00    -0.388 OA
ATOM   1555 'HO2   U A  64      24.380  -7.844 -19.959  1.00  0.00     0.210 HD
ATOM   1556  C3'   U A  64      21.798  -8.087 -20.870  1.00  0.00     0.198 C 
ATOM   1557  O3'   U A  64      21.920  -8.823 -19.656  1.00  0.00    -0.279 OA
ATOM   1558  P     G A  65      21.277  -8.240 -18.302  1.00  0.00     0.408 P 
ATOM   1559  OP1   G A  65      21.489  -9.255 -17.239  1.00  0.00    -0.624 OA
ATOM   1560  OP2   G A  65      19.899  -7.771 -18.604  1.00  0.00    -0.624 OA
ATOM   1561  O5'   G A  65      22.175  -6.965 -17.967  1.00  0.00    -0.287 OA
ATOM   1562  C5'   G A  65      23.257  -7.050 -17.039  1.00  0.00     0.216 C 
ATOM   1563  C4'   G A  65      24.310  -6.012 -17.364  1.00  0.00     0.180 C 
ATOM   1564  O4'   G A  65      24.149  -5.568 -18.736  1.00  0.00    -0.353 OA
ATOM   1565  C1'   G A  65      24.553  -4.214 -18.848  1.00  0.00     0.262 C 
ATOM   1566  N9    G A  65      23.457  -3.453 -19.443  1.00  0.00    -0.293 N 
ATOM   1567  C4    G A  65      23.459  -2.111 -19.734  1.00  0.00     0.187 A 
ATOM   1568  N3    G A  65      24.476  -1.252 -19.510  1.00  0.00    -0.044 NA
ATOM   1569  C2    G A  65      24.179  -0.025 -19.895  1.00  0.00     0.703 A 
ATOM   1570  N2    G A  65      25.075   0.952 -19.736  1.00  0.00    -0.233 N 
ATOM   1571  H21   G A  65      25.969   0.733 -19.321  1.00  0.00     0.174 HD
ATOM   1572  H22   G A  65      24.858   1.897 -20.020  1.00  0.00     0.174 HD
ATOM   1573  N1    G A  65      22.983   0.336 -20.461  1.00  0.00    -0.153 N 
ATOM   1574  H1    G A  65      22.860   1.302 -20.722  1.00  0.00     0.187 HD
ATOM   1575  C6    G A  65      21.922  -0.529 -20.704  1.00  0.00     0.292 A 
ATOM   1576  O6    G A  65      20.884  -0.098 -21.223  1.00  0.00    -0.265 OA
ATOM   1577  C5    G A  65      22.223  -1.854 -20.290  1.00  0.00     0.173 A 
ATOM   1578  N7    G A  65      21.458  -3.010 -20.345  1.00  0.00    -0.234 NA
ATOM   1579  C8    G A  65      22.228  -3.930 -19.829  1.00  0.00     0.214 A 
ATOM   1580  C2'   G A  65      24.959  -3.726 -17.454  1.00  0.00     0.199 C 
ATOM   1581  O2'   G A  65      26.362  -3.852 -17.323  1.00  0.00    -0.388 OA
ATOM   1582 'HO2   G A  65      26.525  -4.218 -16.454  1.00  0.00     0.210 HD
ATOM   1583  C3'   G A  65      24.236  -4.725 -16.556  1.00  0.00     0.198 C 
ATOM   1584  O3'   G A  65      24.871  -4.872 -15.287  1.00  0.00    -0.279 OA
ATOM   1585  P     G A  66      24.303  -4.073 -14.010  1.00  0.00     0.408 P 
ATOM   1586  OP1   G A  66      24.980  -4.629 -12.810  1.00  0.00    -0.624 OA
ATOM   1587  OP2   G A  66      22.820  -4.061 -14.075  1.00  0.00    -0.624 OA
ATOM   1588  O5'   G A  66      24.828  -2.582 -14.218  1.00  0.00    -0.287 OA
ATOM   1589  C5'   G A  66      26.213  -2.310 -14.425  1.00  0.00     0.216 C 
ATOM   1590  C4'   G A  66      26.448  -0.819 -14.489  1.00  0.00     0.180 C 
ATOM   1591  O4'   G A  66      25.577  -0.255 -15.511  1.00  0.00    -0.353 OA
ATOM   1592  C1'   G A  66      24.724   0.710 -14.930  1.00  0.00     0.262 C 
ATOM   1593  N9    G A  66      23.425   0.633 -15.590  1.00  0.00    -0.293 N 
ATOM   1594  C4    G A  66      22.761   1.668 -16.200  1.00  0.00     0.187 A 
ATOM   1595  N3    G A  66      23.198   2.941 -16.299  1.00  0.00    -0.044 NA
ATOM   1596  C2    G A  66      22.339   3.707 -16.946  1.00  0.00     0.703 A 
ATOM   1597  N2    G A  66      22.620   4.998 -17.140  1.00  0.00    -0.233 N 
ATOM   1598  H21   G A  66      23.488   5.374 -16.789  1.00  0.00     0.174 HD
ATOM   1599  H22   G A  66      21.970   5.589 -17.640  1.00  0.00     0.174 HD
ATOM   1600  N1    G A  66      21.144   3.265 -17.451  1.00  0.00    -0.153 N 
ATOM   1601  H1    G A  66      20.559   3.935 -17.924  1.00  0.00     0.187 HD
ATOM   1602  C6    G A  66      20.672   1.959 -17.361  1.00  0.00     0.292 A 
ATOM   1603  O6    G A  66      19.577   1.667 -17.853  1.00  0.00    -0.265 OA
ATOM   1604  C5    G A  66      21.587   1.121 -16.673  1.00  0.00     0.173 A 
ATOM   1605  N7    G A  66      21.514  -0.232 -16.365  1.00  0.00    -0.234 NA
ATOM   1606  C8    G A  66      22.625  -0.474 -15.725  1.00  0.00     0.214 A 
ATOM   1607  C2'   G A  66      24.692   0.412 -13.437  1.00  0.00     0.199 C 
ATOM   1608  O2'   G A  66      24.422   1.613 -12.738  1.00  0.00    -0.388 OA
ATOM   1609 'HO2   G A  66      25.264   2.054 -12.616  1.00  0.00     0.210 HD
ATOM   1610  C3'   G A  66      26.125  -0.055 -13.206  1.00  0.00     0.198 C 
ATOM   1611  O3'   G A  66      27.020   1.038 -13.010  1.00  0.00    -0.279 OA
ATOM   1612  P     C A  67      28.451   0.788 -12.318  1.00  0.00     0.408 P 
ATOM   1613  OP1   C A  67      28.826  -0.632 -12.544  1.00  0.00    -0.624 OA
ATOM   1614  OP2   C A  67      28.387   1.317 -10.932  1.00  0.00    -0.624 OA
ATOM   1615  O5'   C A  67      29.453   1.702 -13.154  1.00  0.00    -0.287 OA
ATOM   1616  C5'   C A  67      29.445   1.694 -14.582  1.00  0.00     0.216 C 
ATOM   1617  C4'   C A  67      29.124   3.073 -15.107  1.00  0.00     0.180 C 
ATOM   1618  O4'   C A  67      29.372   3.090 -16.541  1.00  0.00    -0.353 OA
ATOM   1619  C1'   C A  67      28.174   3.381 -17.231  1.00  0.00     0.264 C 
ATOM   1620  N1    C A  67      28.125   2.555 -18.450  1.00  0.00    -0.278 N 
ATOM   1621  C6    C A  67      28.045   3.136 -19.685  1.00  0.00     0.102 A 
ATOM   1622  C2    C A  67      28.162   1.161 -18.330  1.00  0.00     0.352 A 
ATOM   1623  O2    C A  67      28.231   0.656 -17.202  1.00  0.00    -0.244 OA
ATOM   1624  N3    C A  67      28.119   0.400 -19.446  1.00  0.00    -0.177 NA
ATOM   1625  C4    C A  67      28.041   0.977 -20.644  1.00  0.00     0.128 A 
ATOM   1626  N4    C A  67      28.002   0.185 -21.714  1.00  0.00    -0.384 N 
ATOM   1627  H41   C A  67      27.944   0.582 -22.639  1.00  0.00     0.157 HD
ATOM   1628  H42   C A  67      28.035  -0.817 -21.592  1.00  0.00     0.157 HD
ATOM   1629  C5    C A  67      27.998   2.393 -20.798  1.00  0.00     0.067 A 
ATOM   1630  C2'   C A  67      27.028   3.120 -16.260  1.00  0.00     0.199 C 
ATOM   1631  O2'   C A  67      25.956   3.985 -16.581  1.00  0.00    -0.388 OA
ATOM   1632 'HO2   C A  67      25.813   4.543 -15.816  1.00  0.00     0.210 HD
ATOM   1633  C3'   C A  67      27.671   3.510 -14.933  1.00  0.00     0.198 C 
ATOM   1634  O3'   C A  67      27.578   4.908 -14.678  1.00  0.00    -0.279 OA
ATOM   1635  P     U A  68      27.430   5.438 -13.165  1.00  0.00     0.408 P 
ATOM   1636  OP1   U A  68      27.397   6.921 -13.219  1.00  0.00    -0.624 OA
ATOM   1637  OP2   U A  68      28.446   4.756 -12.325  1.00  0.00    -0.624 OA
ATOM   1638  O5'   U A  68      25.986   4.927 -12.722  1.00  0.00    -0.287 OA
ATOM   1639  C5'   U A  68      24.812   5.346 -13.415  1.00  0.00     0.216 C 
ATOM   1640  C4'   U A  68      24.100   6.426 -12.632  1.00  0.00     0.180 C 
ATOM   1641  O4'   U A  68      22.676   6.130 -12.629  1.00  0.00    -0.353 OA
ATOM   1642  C1'   U A  68      22.275   5.723 -11.332  1.00  0.00     0.264 C 
ATOM   1643  N1    U A  68      21.437   4.523 -11.468  1.00  0.00    -0.280 N 
ATOM   1644  C6    U A  68      21.953   3.344 -11.959  1.00  0.00     0.104 A 
ATOM   1645  C2    U A  68      20.111   4.617 -11.087  1.00  0.00     0.331 A 
ATOM   1646  O2    U A  68      19.619   5.641 -10.647  1.00  0.00    -0.246 OA
ATOM   1647  N3    U A  68      19.381   3.467 -11.242  1.00  0.00    -0.275 N 
ATOM   1648  H3    U A  68      18.411   3.514 -10.969  1.00  0.00     0.173 HD
ATOM   1649  C4    U A  68      19.828   2.260 -11.727  1.00  0.00     0.250 A 
ATOM   1650  O4    U A  68      19.042   1.318 -11.818  1.00  0.00    -0.268 OA
ATOM   1651  C5    U A  68      21.208   2.242 -12.097  1.00  0.00     0.092 A 
ATOM   1652  C2'   U A  68      23.548   5.511 -10.512  1.00  0.00     0.199 C 
ATOM   1653  O2'   U A  68      23.280   5.838  -9.162  1.00  0.00    -0.388 OA
ATOM   1654 'HO2   U A  68      24.122   5.998  -8.733  1.00  0.00     0.210 HD
ATOM   1655  C3'   U A  68      24.476   6.530 -11.158  1.00  0.00     0.198 C 
ATOM   1656  O3'   U A  68      24.259   7.846 -10.654  1.00  0.00    -0.279 OA
ATOM   1657  P     U A  69      25.461   8.914 -10.654  1.00  0.00     0.408 P 
ATOM   1658  OP1   U A  69      25.591   9.438 -12.038  1.00  0.00    -0.624 OA
ATOM   1659  OP2   U A  69      26.638   8.299  -9.989  1.00  0.00    -0.624 OA
ATOM   1660  O5'   U A  69      24.923  10.094  -9.728  1.00  0.00    -0.287 OA
ATOM   1661  C5'   U A  69      23.544  10.465  -9.734  1.00  0.00     0.216 C 
ATOM   1662  C4'   U A  69      22.909  10.132  -8.403  1.00  0.00     0.180 C 
ATOM   1663  O4'   U A  69      21.553  10.660  -8.399  1.00  0.00    -0.353 OA
ATOM   1664  C1'   U A  69      20.629   9.605  -8.232  1.00  0.00     0.264 C 
ATOM   1665  N1    U A  69      19.462   9.875  -9.084  1.00  0.00    -0.280 N 
ATOM   1666  C6    U A  69      19.562   9.853 -10.458  1.00  0.00     0.104 A 
ATOM   1667  C2    U A  69      18.259  10.154  -8.463  1.00  0.00     0.331 A 
ATOM   1668  O2    U A  69      18.127  10.181  -7.253  1.00  0.00    -0.246 OA
ATOM   1669  N3    U A  69      17.212  10.401  -9.313  1.00  0.00    -0.275 N 
ATOM   1670  H3    U A  69      16.327  10.619  -8.882  1.00  0.00     0.173 HD
ATOM   1671  C4    U A  69      17.240  10.393 -10.688  1.00  0.00     0.250 A 
ATOM   1672  O4    U A  69      16.209  10.634 -11.315  1.00  0.00    -0.268 OA
ATOM   1673  C5    U A  69      18.518  10.095 -11.254  1.00  0.00     0.092 A 
ATOM   1674  C2'   U A  69      21.365   8.314  -8.575  1.00  0.00     0.199 C 
ATOM   1675  O2'   U A  69      20.801   7.258  -7.819  1.00  0.00    -0.388 OA
ATOM   1676 'HO2   U A  69      21.408   7.077  -7.101  1.00  0.00     0.210 HD
ATOM   1677  C3'   U A  69      22.776   8.641  -8.100  1.00  0.00     0.198 C 
ATOM   1678  O3'   U A  69      22.949   8.372  -6.710  1.00  0.00    -0.279 OA
ATOM   1679  P     G A  70      24.384   7.897  -6.161  1.00  0.00     0.408 P 
ATOM   1680  OP1   G A  70      25.148   9.120  -5.803  1.00  0.00    -0.624 OA
ATOM   1681  OP2   G A  70      24.963   6.924  -7.123  1.00  0.00    -0.624 OA
ATOM   1682  O5'   G A  70      24.042   7.118  -4.813  1.00  0.00    -0.287 OA
ATOM   1683  C5'   G A  70      23.060   7.615  -3.904  1.00  0.00     0.216 C 
ATOM   1684  C4'   G A  70      22.684   6.545  -2.903  1.00  0.00     0.180 C 
ATOM   1685  O4'   G A  70      21.548   5.803  -3.426  1.00  0.00    -0.353 OA
ATOM   1686  C1'   G A  70      21.740   4.417  -3.212  1.00  0.00     0.262 C 
ATOM   1687  N9    G A  70      21.934   3.772  -4.507  1.00  0.00    -0.293 N 
ATOM   1688  C4    G A  70      22.031   2.420  -4.739  1.00  0.00     0.187 A 
ATOM   1689  N3    G A  70      21.962   1.449  -3.804  1.00  0.00    -0.044 NA
ATOM   1690  C2    G A  70      22.090   0.246  -4.333  1.00  0.00     0.703 A 
ATOM   1691  N2    G A  70      22.050  -0.832  -3.544  1.00  0.00    -0.233 N 
ATOM   1692  H21   G A  70      21.922  -0.705  -2.549  1.00  0.00     0.174 HD
ATOM   1693  H22   G A  70      22.152  -1.757  -3.931  1.00  0.00     0.174 HD
ATOM   1694  N1    G A  70      22.267   0.010  -5.672  1.00  0.00    -0.153 N 
ATOM   1695  H1    G A  70      22.353  -0.947  -5.976  1.00  0.00     0.187 HD
ATOM   1696  C6    G A  70      22.340   0.993  -6.654  1.00  0.00     0.292 A 
ATOM   1697  O6    G A  70      22.502   0.669  -7.836  1.00  0.00    -0.265 OA
ATOM   1698  C5    G A  70      22.207   2.294  -6.100  1.00  0.00     0.173 A 
ATOM   1699  N7    G A  70      22.222   3.539  -6.713  1.00  0.00    -0.234 NA
ATOM   1700  C8    G A  70      22.057   4.383  -5.731  1.00  0.00     0.214 A 
ATOM   1701  C2'   G A  70      22.928   4.264  -2.265  1.00  0.00     0.199 C 
ATOM   1702  O2'   G A  70      22.452   4.337  -0.933  1.00  0.00    -0.388 OA
ATOM   1703 'HO2   G A  70      21.576   4.724  -0.967  1.00  0.00     0.210 HD
ATOM   1704  C3'   G A  70      23.753   5.492  -2.631  1.00  0.00     0.198 C 
ATOM   1705  O3'   G A  70      24.628   5.891  -1.578  1.00  0.00    -0.279 OA
ATOM   1706  P     U A  71      26.041   5.146  -1.388  1.00  0.00     0.408 P 
ATOM   1707  OP1   U A  71      26.705   5.766  -0.213  1.00  0.00    -0.624 OA
ATOM   1708  OP2   U A  71      26.741   5.121  -2.697  1.00  0.00    -0.624 OA
ATOM   1709  O5'   U A  71      25.643   3.652  -0.999  1.00  0.00    -0.287 OA
ATOM   1710  C5'   U A  71      26.641   2.690  -0.660  1.00  0.00     0.216 C 
ATOM   1711  C4'   U A  71      26.333   1.365  -1.321  1.00  0.00     0.180 C 
ATOM   1712  O4'   U A  71      27.221   1.203  -2.462  1.00  0.00    -0.353 OA
ATOM   1713  C1'   U A  71      28.136   0.152  -2.212  1.00  0.00     0.264 C 
ATOM   1714  N1    U A  71      29.471   0.589  -2.646  1.00  0.00    -0.280 N 
ATOM   1715  C6    U A  71      30.116  -0.033  -3.691  1.00  0.00     0.104 A 
ATOM   1716  C2    U A  71      30.062   1.647  -1.974  1.00  0.00     0.331 A 
ATOM   1717  O2    U A  71      29.531   2.224  -1.043  1.00  0.00    -0.246 OA
ATOM   1718  N3    U A  71      31.303   2.003  -2.433  1.00  0.00    -0.275 N 
ATOM   1719  H3    U A  71      31.750   2.776  -1.963  1.00  0.00     0.173 HD
ATOM   1720  C4    U A  71      32.002   1.426  -3.469  1.00  0.00     0.250 A 
ATOM   1721  O4    U A  71      33.116   1.859  -3.761  1.00  0.00    -0.268 OA
ATOM   1722  C5    U A  71      31.327   0.341  -4.110  1.00  0.00     0.092 A 
ATOM   1723  C2'   U A  71      28.036  -0.187  -0.726  1.00  0.00     0.199 C 
ATOM   1724  O2'   U A  71      28.301  -1.567  -0.556  1.00  0.00    -0.388 OA
ATOM   1725 'HO2   U A  71      27.466  -1.983  -0.343  1.00  0.00     0.210 HD
ATOM   1726  C3'   U A  71      26.571   0.132  -0.456  1.00  0.00     0.198 C 
ATOM   1727  O3'   U A  71      25.712  -0.945  -0.825  1.00  0.00    -0.279 OA
ATOM   1728  P     C A  72      24.264  -1.089  -0.138  1.00  0.00     0.408 P 
ATOM   1729  OP1   C A  72      23.949  -2.539  -0.076  1.00  0.00    -0.624 OA
ATOM   1730  OP2   C A  72      23.329  -0.165  -0.828  1.00  0.00    -0.624 OA
ATOM   1731  O5'   C A  72      24.483  -0.560   1.350  1.00  0.00    -0.287 OA
ATOM   1732  C5'   C A  72      25.156  -1.356   2.326  1.00  0.00     0.216 C 
ATOM   1733  C4'   C A  72      24.897  -0.811   3.710  1.00  0.00     0.180 C 
ATOM   1734  O4'   C A  72      25.603   0.451   3.851  1.00  0.00    -0.353 OA
ATOM   1735  C1'   C A  72      24.777   1.396   4.506  1.00  0.00     0.264 C 
ATOM   1736  N1    C A  72      24.462   2.476   3.557  1.00  0.00    -0.278 N 
ATOM   1737  C6    C A  72      24.325   2.216   2.221  1.00  0.00     0.102 A 
ATOM   1738  C2    C A  72      24.303   3.777   4.042  1.00  0.00     0.352 A 
ATOM   1739  O2    C A  72      24.434   3.985   5.257  1.00  0.00    -0.244 OA
ATOM   1740  N3    C A  72      24.013   4.774   3.177  1.00  0.00    -0.177 NA
ATOM   1741  C4    C A  72      23.882   4.509   1.877  1.00  0.00     0.128 A 
ATOM   1742  N4    C A  72      23.594   5.522   1.064  1.00  0.00    -0.384 N 
ATOM   1743  H41   C A  72      23.486   5.352   0.074  1.00  0.00     0.157 HD
ATOM   1744  H42   C A  72      23.485   6.452   1.436  1.00  0.00     0.157 HD
ATOM   1745  C5    C A  72      24.039   3.193   1.354  1.00  0.00     0.067 A 
ATOM   1746  C2'   C A  72      23.545   0.651   5.023  1.00  0.00     0.199 C 
ATOM   1747  O2'   C A  72      23.819   0.164   6.324  1.00  0.00    -0.388 OA
ATOM   1748 'HO2   C A  72      23.856  -0.791   6.263  1.00  0.00     0.210 HD
ATOM   1749  C3'   C A  72      23.440  -0.490   4.018  1.00  0.00     0.198 C 
ATOM   1750  O3'   C A  72      22.763  -1.624   4.553  1.00  0.00    -0.279 OA
ATOM   1751  P     C A  73      21.164  -1.595   4.728  1.00  0.00     0.408 P 
ATOM   1752  OP1   C A  73      20.626  -2.791   4.032  1.00  0.00    -0.624 OA
ATOM   1753  OP2   C A  73      20.669  -0.244   4.355  1.00  0.00    -0.624 OA
ATOM   1754  O5'   C A  73      20.945  -1.793   6.293  1.00  0.00    -0.287 OA
ATOM   1755  C5'   C A  73      21.710  -2.748   7.030  1.00  0.00     0.216 C 
ATOM   1756  C4'   C A  73      21.046  -3.037   8.358  1.00  0.00     0.180 C 
ATOM   1757  O4'   C A  73      21.158  -1.856   9.200  1.00  0.00    -0.353 OA
ATOM   1758  C1'   C A  73      19.884  -1.262   9.368  1.00  0.00     0.264 C 
ATOM   1759  N1    C A  73      20.017   0.187   9.148  1.00  0.00    -0.278 N 
ATOM   1760  C6    C A  73      20.827   0.674   8.159  1.00  0.00     0.102 A 
ATOM   1761  C2    C A  73      19.298   1.064   9.965  1.00  0.00     0.352 A 
ATOM   1762  O2    C A  73      18.576   0.597  10.857  1.00  0.00    -0.244 OA
ATOM   1763  N3    C A  73      19.410   2.396   9.765  1.00  0.00    -0.177 NA
ATOM   1764  C4    C A  73      20.198   2.859   8.795  1.00  0.00     0.128 A 
ATOM   1765  N4    C A  73      20.273   4.178   8.633  1.00  0.00    -0.384 N 
ATOM   1766  H41   C A  73      20.859   4.561   7.907  1.00  0.00     0.157 HD
ATOM   1767  H42   C A  73      19.740   4.790   9.234  1.00  0.00     0.157 HD
ATOM   1768  C5    C A  73      20.945   1.990   7.949  1.00  0.00     0.067 A 
ATOM   1769  C2'   C A  73      18.928  -1.948   8.394  1.00  0.00     0.199 C 
ATOM   1770  O2'   C A  73      17.643  -2.011   8.986  1.00  0.00    -0.388 OA
ATOM   1771 'HO2   C A  73      17.597  -2.846   9.453  1.00  0.00     0.210 HD
ATOM   1772  C3'   C A  73      19.552  -3.335   8.289  1.00  0.00     0.198 C 
ATOM   1773  O3'   C A  73      19.134  -4.190   9.352  1.00  0.00    -0.279 OA
ATOM   1774  P     A A  74      19.454  -5.765   9.287  1.00  0.00     0.408 P 
ATOM   1775  OP1   A A  74      20.311  -6.008   8.097  1.00  0.00    -0.624 OA
ATOM   1776  OP2   A A  74      18.172  -6.501   9.427  1.00  0.00    -0.624 OA
ATOM   1777  O5'   A A  74      20.323  -6.032  10.597  1.00  0.00    -0.287 OA
ATOM   1778  C5'   A A  74      21.537  -6.778  10.537  1.00  0.00     0.216 C 
ATOM   1779  C4'   A A  74      22.003  -7.124  11.932  1.00  0.00     0.180 C 
ATOM   1780  O4'   A A  74      22.060  -8.572  12.051  1.00  0.00    -0.353 OA
ATOM   1781  C1'   A A  74      23.383  -8.979  12.335  1.00  0.00     0.262 C 
ATOM   1782  N9    A A  74      23.651 -10.214  11.596  1.00  0.00    -0.294 N 
ATOM   1783  C4    A A  74      23.502 -11.493  12.074  1.00  0.00     0.167 A 
ATOM   1784  N3    A A  74      23.087 -11.862  13.299  1.00  0.00    -0.222 NA
ATOM   1785  C2    A A  74      23.066 -13.188  13.407  1.00  0.00     0.237 A 
ATOM   1786  N1    A A  74      23.388 -14.118  12.499  1.00  0.00    -0.222 NA
ATOM   1787  C6    A A  74      23.801 -13.712  11.280  1.00  0.00     0.155 A 
ATOM   1788  N6    A A  74      24.124 -14.638  10.377  1.00  0.00    -0.382 N 
ATOM   1789  H61   A A  74      24.436 -14.358   9.458  1.00  0.00     0.157 HD
ATOM   1790  H62   A A  74      24.061 -15.616  10.618  1.00  0.00     0.157 HD
ATOM   1791  C5    A A  74      23.868 -12.329  11.037  1.00  0.00     0.149 A 
ATOM   1792  N7    A A  74      24.239 -11.592   9.920  1.00  0.00    -0.236 NA
ATOM   1793  C8    A A  74      24.094 -10.347  10.303  1.00  0.00     0.214 A 
ATOM   1794  C2'   A A  74      24.292  -7.812  11.960  1.00  0.00     0.199 C 
ATOM   1795  O2'   A A  74      25.438  -7.844  12.790  1.00  0.00    -0.388 OA
ATOM   1796 'HO2   A A  74      25.201  -7.417  13.614  1.00  0.00     0.210 HD
ATOM   1797  C3'   A A  74      23.399  -6.622  12.295  1.00  0.00     0.198 C 
ATOM   1798  O3'   A A  74      23.473  -6.254  13.670  1.00  0.00    -0.279 OA
ATOM   1799  P     A A  75      24.280  -4.930  14.103  1.00  0.00     0.408 P 
ATOM   1800  OP1   A A  75      23.966  -3.864  13.117  1.00  0.00    -0.624 OA
ATOM   1801  OP2   A A  75      25.694  -5.311  14.346  1.00  0.00    -0.624 OA
ATOM   1802  O5'   A A  75      23.625  -4.517  15.495  1.00  0.00    -0.287 OA
ATOM   1803  C5'   A A  75      23.763  -5.345  16.651  1.00  0.00     0.216 C 
ATOM   1804  C4'   A A  75      22.402  -5.682  17.218  1.00  0.00     0.180 C 
ATOM   1805  O4'   A A  75      21.526  -4.533  17.046  1.00  0.00    -0.353 OA
ATOM   1806  C1'   A A  75      20.544  -4.820  16.068  1.00  0.00     0.262 C 
ATOM   1807  N9    A A  75      20.469  -3.685  15.148  1.00  0.00    -0.294 N 
ATOM   1808  C4    A A  75      20.198  -2.382  15.490  1.00  0.00     0.167 A 
ATOM   1809  N3    A A  75      19.952  -1.895  16.718  1.00  0.00    -0.222 NA
ATOM   1810  C2    A A  75      19.730  -0.583  16.668  1.00  0.00     0.237 A 
ATOM   1811  N1    A A  75      19.726   0.236  15.607  1.00  0.00    -0.222 NA
ATOM   1812  C6    A A  75      19.976  -0.286  14.387  1.00  0.00     0.155 A 
ATOM   1813  N6    A A  75      19.969   0.530  13.333  1.00  0.00    -0.382 N 
ATOM   1814  H61   A A  75      20.152   0.162  12.410  1.00  0.00     0.157 HD
ATOM   1815  H62   A A  75      19.777   1.513  13.458  1.00  0.00     0.157 HD
ATOM   1816  C5    A A  75      20.227  -1.667  14.305  1.00  0.00     0.149 A 
ATOM   1817  N7    A A  75      20.512  -2.503  13.235  1.00  0.00    -0.236 NA
ATOM   1818  C8    A A  75      20.645  -3.685  13.785  1.00  0.00     0.214 A 
ATOM   1819  C2'   A A  75      20.935  -6.138  15.402  1.00  0.00     0.198 C 
ATOM   1820  O2'   A A  75      19.753  -6.834  15.055  1.00  0.00    -0.388 OA
ATOM   1821 'HO2   A A  75      19.871  -7.747  15.321  1.00  0.00     0.210 HD
ATOM   1822  C3'   A A  75      21.680  -6.835  16.535  1.00  0.00     0.182 C 
ATOM   1823  O3'   A A  75      20.799  -7.524  17.430  1.00  0.00    -0.390 OA
ATOM   1824 'HO3   A A  75      20.184  -6.875  17.780  1.00  0.00     0.210 HD
ENDROOT
TORSDOF 576
ENDMDL
