REMARK WARNING: 32 MAX_TORS EXCEEDED!!!
REMARK  104 active torsions:
REMARK  status: ('A' for Active; 'I' for Inactive)
REMARK       I    between atoms: O5'_2  and  C5'_3 
REMARK       I    between atoms: C5'_3  and  C4'_4 
REMARK       I    between atoms: C1'_6  and  N9_7 
REMARK       I    between atoms: C2_10  and  N2_11 
REMARK       I    between atoms: C2'_21  and  O2'_22 
REMARK       I    between atoms: C3'_24  and  O3'_25 
REMARK       I    between atoms: O3'_25  and  P_26 
REMARK       I    between atoms: P_26  and  O5'_29 
REMARK       I    between atoms: O5'_29  and  C5'_30 
REMARK       I    between atoms: C5'_30  and  C4'_31 
REMARK       I    between atoms: C1'_33  and  N9_34 
REMARK       I    between atoms: C6_39  and  N6_40 
REMARK       I    between atoms: C2'_46  and  O2'_47 
REMARK       I    between atoms: C3'_49  and  O3'_50 
REMARK       I    between atoms: O3'_50  and  P_51 
REMARK       I    between atoms: P_51  and  O5'_54 
REMARK       I    between atoms: O5'_54  and  C5'_55 
REMARK       I    between atoms: C5'_55  and  C4'_56 
REMARK       I    between atoms: C1'_58  and  N1_59 
REMARK       I    between atoms: C4_64  and  N4_65 
REMARK       I    between atoms: C2'_69  and  O2'_70 
REMARK       I    between atoms: C3'_72  and  O3'_73 
REMARK       I    between atoms: O3'_73  and  P_74 
REMARK       I    between atoms: P_74  and  O5'_77 
REMARK       I    between atoms: O5'_77  and  C5'_78 
REMARK       I    between atoms: C5'_78  and  C4'_79 
REMARK       I    between atoms: C1'_81  and  N1_82 
REMARK       I    between atoms: C4_87  and  N4_88 
REMARK       I    between atoms: C2'_92  and  O2'_93 
REMARK       I    between atoms: C3'_95  and  O3'_96 
REMARK       I    between atoms: O3'_96  and  P_97 
REMARK       I    between atoms: P_97  and  O5'_100 
REMARK       I    between atoms: O5'_100  and  C5'_101 
REMARK       I    between atoms: C5'_101  and  C4'_102 
REMARK       I    between atoms: C1'_104  and  N1_105 
REMARK       I    between atoms: C2'_114  and  O2'_115 
REMARK       I    between atoms: C3'_117  and  O3'_118 
REMARK       I    between atoms: O3'_118  and  P_119 
REMARK       I    between atoms: P_119  and  O5'_122 
REMARK       I    between atoms: O5'_122  and  C5'_123 
REMARK       I    between atoms: C5'_123  and  C4'_124 
REMARK       I    between atoms: C1'_126  and  N1_127 
REMARK       I    between atoms: C4_132  and  N4_133 
REMARK       I    between atoms: C2'_137  and  O2'_138 
REMARK       I    between atoms: C3'_140  and  O3'_141 
REMARK       I    between atoms: O3'_141  and  P_142 
REMARK       I    between atoms: P_142  and  O5'_145 
REMARK       I    between atoms: O5'_145  and  C5'_146 
REMARK       I    between atoms: C5'_146  and  C4'_147 
REMARK       I    between atoms: C1'_149  and  N9_150 
REMARK       I    between atoms: C2_153  and  N2_154 
REMARK       I    between atoms: C2'_164  and  O2'_165 
REMARK    1  A    between atoms: C3'_167  and  O3'_168 
REMARK    2  A    between atoms: O3'_168  and  P_169 
REMARK    3  A    between atoms: P_169  and  O5'_172 
REMARK    4  A    between atoms: O5'_172  and  C5'_173 
REMARK    5  A    between atoms: C5'_173  and  C4'_174 
REMARK       I    between atoms: C1'_176  and  N1_177 
REMARK    6  A    between atoms: C2'_186  and  O2'_187 
REMARK    7  A    between atoms: C3'_189  and  O3'_190 
REMARK    8  A    between atoms: O3'_190  and  P_191 
REMARK    9  A    between atoms: P_191  and  O5'_194 
REMARK   10  A    between atoms: O5'_194  and  C5'_195 
REMARK   11  A    between atoms: C5'_195  and  C4'_196 
REMARK       I    between atoms: C1'_198  and  N9_199 
REMARK       I    between atoms: C2_202  and  N2_203 
REMARK   12  A    between atoms: C2'_213  and  O2'_214 
REMARK       I    between atoms: C3'_216  and  O3'_217 
REMARK       I    between atoms: O3'_217  and  P_218 
REMARK       I    between atoms: P_218  and  O5'_221 
REMARK   13  A    between atoms: O5'_221  and  C5'_222 
REMARK   14  A    between atoms: C5'_222  and  C4'_223 
REMARK   15  A    between atoms: C1'_225  and  N9_226 
REMARK       I    between atoms: C2_229  and  N2_230 
REMARK   16  A    between atoms: C2'_240  and  O2'_241 
REMARK   17  A    between atoms: C3'_243  and  O3'_244 
REMARK   18  A    between atoms: O3'_244  and  P_245 
REMARK   19  A    between atoms: P_245  and  O5'_248 
REMARK   20  A    between atoms: O5'_248  and  C5'_249 
REMARK   21  A    between atoms: C5'_249  and  C4'_250 
REMARK   22  A    between atoms: C1'_252  and  N1_253 
REMARK       I    between atoms: C4_258  and  N4_259 
REMARK   23  A    between atoms: C2'_263  and  O2'_264 
REMARK   24  A    between atoms: C3'_266  and  O3'_267 
REMARK   25  A    between atoms: O3'_267  and  P_268 
REMARK   26  A    between atoms: P_268  and  O5'_271 
REMARK   27  A    between atoms: O5'_271  and  C5'_272 
REMARK   28  A    between atoms: C5'_272  and  C4'_273 
REMARK       I    between atoms: C1'_275  and  N9_276 
REMARK       I    between atoms: C2_279  and  N2_280 
REMARK   29  A    between atoms: C2'_290  and  O2'_291 
REMARK   30  A    between atoms: C3'_293  and  O3'_294 
REMARK   31  A    between atoms: O3'_294  and  P_295 
REMARK   32  A    between atoms: P_295  and  O5'_298 
REMARK   33  A    between atoms: O5'_298  and  C5'_299 
REMARK   34  A    between atoms: C5'_299  and  C4'_300 
REMARK       I    between atoms: C1'_302  and  N1_303 
REMARK       I    between atoms: C2'_312  and  O2'_313 
REMARK       I    between atoms: C3'_315  and  O3'_316 
REMARK       I    between atoms: O3'_316  and  P_317 
REMARK       I    between atoms: P_317  and  O5'_320 
REMARK       I    between atoms: O5'_320  and  C5'_321 
REMARK       I    between atoms: C5'_321  and  C4'_322 
REMARK       I    between atoms: C1'_324  and  N1_325 
REMARK       I    between atoms: C4_330  and  N4_331 
REMARK       I    between atoms: C2'_335  and  O2'_336 
REMARK       I    between atoms: C3'_338  and  O3'_339 
REMARK       I    between atoms: O3'_339  and  P_340 
REMARK       I    between atoms: P_340  and  O5'_343 
REMARK       I    between atoms: O5'_343  and  C5'_344 
REMARK       I    between atoms: C5'_344  and  C4'_345 
REMARK       I    between atoms: C1'_347  and  N1_348 
REMARK       I    between atoms: C2'_357  and  O2'_358 
REMARK       I    between atoms: C3'_360  and  O3'_361 
REMARK       I    between atoms: O3'_361  and  P_362 
REMARK       I    between atoms: P_362  and  O5'_365 
REMARK       I    between atoms: O5'_365  and  C5'_366 
REMARK       I    between atoms: C5'_366  and  C4'_367 
REMARK       I    between atoms: C1'_369  and  N9_370 
REMARK       I    between atoms: C2_373  and  N2_374 
REMARK       I    between atoms: C2'_384  and  O2'_385 
REMARK       I    between atoms: C3'_387  and  O3'_388 
REMARK       I    between atoms: O3'_388  and  P_389 
REMARK       I    between atoms: P_389  and  O5'_392 
REMARK       I    between atoms: O5'_392  and  C5'_393 
REMARK       I    between atoms: C5'_393  and  C4'_394 
REMARK       I    between atoms: C1'_396  and  N9_397 
REMARK       I    between atoms: C6_402  and  N6_403 
REMARK       I    between atoms: C2'_409  and  O2'_410 
REMARK       I    between atoms: C3'_412  and  O3'_413 
REMARK       I    between atoms: O3'_413  and  P_414 
REMARK       I    between atoms: P_414  and  O5'_417 
REMARK       I    between atoms: O5'_417  and  C5'_418 
REMARK       I    between atoms: C5'_418  and  C4'_419 
REMARK       I    between atoms: C1'_421  and  N1_422 
REMARK       I    between atoms: C4_427  and  N4_428 
REMARK       I    between atoms: C2'_432  and  O2'_433 
REMARK       I    between atoms: C3'_435  and  O3'_436 
REMARK       I    between atoms: O3'_436  and  P_437 
REMARK       I    between atoms: P_437  and  O5'_440 
REMARK   35  A    between atoms: O5'_440  and  C5'_441 
REMARK   36  A    between atoms: C5'_441  and  C4'_442 
REMARK   37  A    between atoms: C1'_444  and  N1_445 
REMARK   38  A    between atoms: C2'_454  and  O2'_455 
REMARK   39  A    between atoms: C3'_457  and  O3'_458 
REMARK   40  A    between atoms: O3'_458  and  P_459 
REMARK   41  A    between atoms: P_459  and  O5'_462 
REMARK   42  A    between atoms: O5'_462  and  C5'_463 
REMARK       I    between atoms: C5'_463  and  C4'_464 
REMARK       I    between atoms: C1'_466  and  N1_467 
REMARK       I    between atoms: C4_472  and  N4_473 
REMARK   43  A    between atoms: C2'_477  and  O2'_478 
REMARK   44  A    between atoms: C3'_480  and  O3'_481 
REMARK   45  A    between atoms: O3'_481  and  P_482 
REMARK   46  A    between atoms: P_482  and  O5'_485 
REMARK   47  A    between atoms: O5'_485  and  C5'_486 
REMARK   48  A    between atoms: C5'_486  and  C4'_487 
REMARK       I    between atoms: C1'_489  and  N1_490 
REMARK       I    between atoms: C4_495  and  N4_496 
REMARK       I    between atoms: C2'_500  and  O2'_501 
REMARK       I    between atoms: C3'_503  and  O3'_504 
REMARK       I    between atoms: O3'_504  and  P_505 
REMARK       I    between atoms: P_505  and  O5'_508 
REMARK       I    between atoms: O5'_508  and  C5'_509 
REMARK       I    between atoms: C5'_509  and  C4'_510 
REMARK       I    between atoms: C1'_512  and  N9_513 
REMARK       I    between atoms: C6_518  and  N6_519 
REMARK       I    between atoms: C2'_525  and  O2'_526 
REMARK       I    between atoms: C3'_528  and  O3'_529 
REMARK       I    between atoms: O3'_529  and  P_530 
REMARK   49  A    between atoms: P_530  and  O5'_533 
REMARK   50  A    between atoms: O5'_533  and  C5'_534 
REMARK   51  A    between atoms: C5'_534  and  C4'_535 
REMARK       I    between atoms: C1'_537  and  N9_538 
REMARK       I    between atoms: C2_541  and  N2_542 
REMARK   52  A    between atoms: C2'_552  and  O2'_553 
REMARK   53  A    between atoms: C3'_555  and  O3'_556 
REMARK   54  A    between atoms: O3'_556  and  P_557 
REMARK   55  A    between atoms: P_557  and  O5'_560 
REMARK   56  A    between atoms: O5'_560  and  C5'_561 
REMARK   57  A    between atoms: C5'_561  and  C4'_562 
REMARK   58  A    between atoms: C1'_564  and  N9_565 
REMARK       I    between atoms: C6_570  and  N6_571 
REMARK   59  A    between atoms: C2'_577  and  O2'_578 
REMARK       I    between atoms: C3'_580  and  O3'_581 
REMARK       I    between atoms: O3'_581  and  P_582 
REMARK       I    between atoms: P_582  and  O5'_585 
REMARK       I    between atoms: O5'_585  and  C5'_586 
REMARK       I    between atoms: C5'_586  and  C4'_587 
REMARK       I    between atoms: C1'_589  and  N1_590 
REMARK       I    between atoms: C2'_599  and  O2'_600 
REMARK       I    between atoms: C3'_602  and  O3'_603 
REMARK       I    between atoms: O3'_603  and  P_604 
REMARK       I    between atoms: P_604  and  O5'_607 
REMARK       I    between atoms: O5'_607  and  C5'_608 
REMARK       I    between atoms: C5'_608  and  C4'_609 
REMARK       I    between atoms: C1'_611  and  N1_612 
REMARK       I    between atoms: C4_617  and  N4_618 
REMARK       I    between atoms: C2'_622  and  O2'_623 
REMARK       I    between atoms: C3'_625  and  O3'_626 
REMARK       I    between atoms: O3'_626  and  P_627 
REMARK       I    between atoms: P_627  and  O5'_630 
REMARK       I    between atoms: O5'_630  and  C5'_631 
REMARK       I    between atoms: C5'_631  and  C4'_632 
REMARK       I    between atoms: C1'_634  and  N9_635 
REMARK       I    between atoms: C6_640  and  N6_641 
REMARK       I    between atoms: C2'_647  and  O2'_648 
REMARK   60  A    between atoms: C3'_650  and  O3'_651 
REMARK   61  A    between atoms: O3'_651  and  P_652 
REMARK   62  A    between atoms: P_652  and  O5'_655 
REMARK   63  A    between atoms: O5'_655  and  C5'_656 
REMARK   64  A    between atoms: C5'_656  and  C4'_657 
REMARK       I    between atoms: C1'_659  and  N9_660 
REMARK       I    between atoms: C2_663  and  N2_664 
REMARK       I    between atoms: C2'_674  and  O2'_675 
REMARK   65  A    between atoms: C3'_677  and  O3'_678 
REMARK   66  A    between atoms: O3'_678  and  P_679 
REMARK   67  A    between atoms: P_679  and  O5'_682 
REMARK   68  A    between atoms: O5'_682  and  C5'_683 
REMARK   69  A    between atoms: C5'_683  and  C4'_684 
REMARK       I    between atoms: C1'_686  and  N9_687 
REMARK       I    between atoms: C6_692  and  N6_693 
REMARK       I    between atoms: C2'_699  and  O2'_700 
REMARK       I    between atoms: C3'_702  and  O3'_703 
REMARK       I    between atoms: O3'_703  and  P_704 
REMARK       I    between atoms: P_704  and  O5'_707 
REMARK       I    between atoms: O5'_707  and  C5'_708 
REMARK       I    between atoms: C5'_708  and  C4'_709 
REMARK       I    between atoms: C1'_711  and  N9_712 
REMARK       I    between atoms: C6_717  and  N6_718 
REMARK       I    between atoms: C2'_724  and  O2'_725 
REMARK       I    between atoms: C3'_727  and  O3'_728 
REMARK       I    between atoms: O3'_728  and  P_729 
REMARK       I    between atoms: P_729  and  O5'_732 
REMARK       I    between atoms: O5'_732  and  C5'_733 
REMARK       I    between atoms: C5'_733  and  C4'_734 
REMARK       I    between atoms: C1'_736  and  N9_737 
REMARK       I    between atoms: C2_740  and  N2_741 
REMARK       I    between atoms: C2'_751  and  O2'_752 
REMARK   70  A    between atoms: C3'_754  and  O3'_755 
REMARK   71  A    between atoms: O3'_755  and  P_756 
REMARK   72  A    between atoms: P_756  and  O5'_759 
REMARK   73  A    between atoms: O5'_759  and  C5'_760 
REMARK   74  A    between atoms: C5'_760  and  C4'_761 
REMARK       I    between atoms: C1'_763  and  N9_764 
REMARK       I    between atoms: C2_767  and  N2_768 
REMARK       I    between atoms: C2'_778  and  O2'_779 
REMARK       I    between atoms: C3'_781  and  O3'_782 
REMARK       I    between atoms: O3'_782  and  P_783 
REMARK       I    between atoms: P_783  and  O5'_786 
REMARK       I    between atoms: O5'_786  and  C5'_787 
REMARK       I    between atoms: C5'_787  and  C4'_788 
REMARK       I    between atoms: C1'_790  and  N1_791 
REMARK   75  A    between atoms: C4_796  and  N4_797 
REMARK       I    between atoms: C2'_801  and  O2'_802 
REMARK       I    between atoms: C3'_804  and  O3'_805 
REMARK       I    between atoms: O3'_805  and  P_806 
REMARK       I    between atoms: P_806  and  O5'_809 
REMARK       I    between atoms: O5'_809  and  C5'_810 
REMARK       I    between atoms: C5'_810  and  C4'_811 
REMARK       I    between atoms: C1'_813  and  N1_814 
REMARK       I    between atoms: C2'_823  and  O2'_824 
REMARK       I    between atoms: C3'_826  and  O3'_827 
REMARK       I    between atoms: O3'_827  and  P_828 
REMARK       I    between atoms: P_828  and  O5'_831 
REMARK       I    between atoms: O5'_831  and  C5'_832 
REMARK       I    between atoms: C5'_832  and  C4'_833 
REMARK       I    between atoms: C1'_835  and  N9_836 
REMARK       I    between atoms: C2_839  and  N2_840 
REMARK       I    between atoms: C2'_850  and  O2'_851 
REMARK       I    between atoms: C3'_853  and  O3'_854 
REMARK       I    between atoms: O3'_854  and  P_855 
REMARK       I    between atoms: P_855  and  O5'_858 
REMARK       I    between atoms: O5'_858  and  C5'_859 
REMARK       I    between atoms: C5'_859  and  C4'_860 
REMARK       I    between atoms: C1'_862  and  N1_863 
REMARK       I    between atoms: C4_868  and  N4_869 
REMARK       I    between atoms: C2'_873  and  O2'_874 
REMARK       I    between atoms: C3'_876  and  O3'_877 
REMARK       I    between atoms: O3'_877  and  P_878 
REMARK       I    between atoms: P_878  and  O5'_881 
REMARK       I    between atoms: O5'_881  and  C5'_882 
REMARK       I    between atoms: C5'_882  and  C4'_883 
REMARK       I    between atoms: C1'_885  and  N9_886 
REMARK       I    between atoms: C2_889  and  N2_890 
REMARK       I    between atoms: C2'_900  and  O2'_901 
REMARK       I    between atoms: C3'_903  and  O3'_904 
REMARK       I    between atoms: O3'_904  and  P_905 
REMARK       I    between atoms: P_905  and  O5'_908 
REMARK       I    between atoms: O5'_908  and  C5'_909 
REMARK       I    between atoms: C5'_909  and  C4'_910 
REMARK       I    between atoms: C1'_912  and  N1_913 
REMARK       I    between atoms: C2'_922  and  O2'_923 
REMARK       I    between atoms: C3'_925  and  O3'_926 
REMARK       I    between atoms: O3'_926  and  P_927 
REMARK       I    between atoms: P_927  and  O5'_930 
REMARK       I    between atoms: O5'_930  and  C5'_931 
REMARK       I    between atoms: C5'_931  and  C4'_932 
REMARK       I    between atoms: C1'_934  and  N9_935 
REMARK       I    between atoms: C2_938  and  N2_939 
REMARK   76  A    between atoms: C2'_949  and  O2'_950 
REMARK   77  A    between atoms: C3'_952  and  O3'_953 
REMARK   78  A    between atoms: O3'_953  and  P_954 
REMARK   79  A    between atoms: P_954  and  O5'_957 
REMARK   80  A    between atoms: O5'_957  and  C5'_958 
REMARK   81  A    between atoms: C5'_958  and  C4'_959 
REMARK       I    between atoms: C1'_961  and  N9_962 
REMARK       I    between atoms: C2_965  and  N2_966 
REMARK       I    between atoms: C2'_976  and  O2'_977 
REMARK   82  A    between atoms: C3'_979  and  O3'_980 
REMARK   83  A    between atoms: O3'_980  and  P_981 
REMARK   84  A    between atoms: P_981  and  O5'_984 
REMARK   85  A    between atoms: O5'_984  and  C5'_985 
REMARK   86  A    between atoms: C5'_985  and  C4'_986 
REMARK       I    between atoms: C1'_988  and  N9_989 
REMARK       I    between atoms: C6_994  and  N6_995 
REMARK       I    between atoms: C2'_1001  and  O2'_1002 
REMARK       I    between atoms: C3'_1004  and  O3'_1005 
REMARK       I    between atoms: O3'_1005  and  P_1006 
REMARK       I    between atoms: P_1006  and  O5'_1009 
REMARK       I    between atoms: O5'_1009  and  C5'_1010 
REMARK       I    between atoms: C5'_1010  and  C4'_1011 
REMARK       I    between atoms: C1'_1013  and  N9_1014 
REMARK       I    between atoms: C6_1019  and  N6_1020 
REMARK       I    between atoms: C2'_1026  and  O2'_1027 
REMARK       I    between atoms: C3'_1029  and  O3'_1030 
REMARK       I    between atoms: O3'_1030  and  P_1031 
REMARK       I    between atoms: P_1031  and  O5'_1034 
REMARK       I    between atoms: O5'_1034  and  C5'_1035 
REMARK       I    between atoms: C5'_1035  and  C4'_1036 
REMARK       I    between atoms: C1'_1038  and  N1_1039 
REMARK       I    between atoms: C2'_1048  and  O2'_1049 
REMARK       I    between atoms: C3'_1051  and  O3'_1052 
REMARK       I    between atoms: O3'_1052  and  P_1053 
REMARK       I    between atoms: P_1053  and  O5'_1056 
REMARK       I    between atoms: O5'_1056  and  C5'_1057 
REMARK       I    between atoms: C5'_1057  and  C4'_1058 
REMARK       I    between atoms: C1'_1060  and  N1_1061 
REMARK       I    between atoms: C4_1066  and  N4_1067 
REMARK       I    between atoms: C2'_1071  and  O2'_1072 
REMARK       I    between atoms: C3'_1074  and  O3'_1075 
REMARK       I    between atoms: O3'_1075  and  P_1076 
REMARK       I    between atoms: P_1076  and  O5'_1079 
REMARK       I    between atoms: O5'_1079  and  C5'_1080 
REMARK       I    between atoms: C5'_1080  and  C4'_1081 
REMARK       I    between atoms: C1'_1083  and  N9_1084 
REMARK       I    between atoms: C6_1089  and  N6_1090 
REMARK       I    between atoms: C2'_1096  and  O2'_1097 
REMARK       I    between atoms: C3'_1099  and  O3'_1100 
REMARK       I    between atoms: O3'_1100  and  P_1101 
REMARK       I    between atoms: P_1101  and  O5'_1104 
REMARK       I    between atoms: O5'_1104  and  C5'_1105 
REMARK       I    between atoms: C5'_1105  and  C4'_1106 
REMARK       I    between atoms: C1'_1108  and  N1_1109 
REMARK       I    between atoms: C4_1114  and  N4_1115 
REMARK       I    between atoms: C2'_1119  and  O2'_1120 
REMARK       I    between atoms: C3'_1122  and  O3'_1123 
REMARK       I    between atoms: O3'_1123  and  P_1124 
REMARK       I    between atoms: P_1124  and  O5'_1127 
REMARK       I    between atoms: O5'_1127  and  C5'_1128 
REMARK       I    between atoms: C5'_1128  and  C4'_1129 
REMARK       I    between atoms: C1'_1131  and  N9_1132 
REMARK       I    between atoms: C2_1135  and  N2_1136 
REMARK       I    between atoms: C2'_1146  and  O2'_1147 
REMARK       I    between atoms: C3'_1149  and  O3'_1150 
REMARK   87  A    between atoms: O3'_1150  and  P_1151 
REMARK   88  A    between atoms: P_1151  and  O5'_1154 
REMARK   89  A    between atoms: O5'_1154  and  C5'_1155 
REMARK   90  A    between atoms: C5'_1155  and  C4'_1156 
REMARK       I    between atoms: C1'_1158  and  N1_1159 
REMARK       I    between atoms: C2'_1168  and  O2'_1169 
REMARK   91  A    between atoms: C3'_1171  and  O3'_1172 
REMARK   92  A    between atoms: O3'_1172  and  P_1173 
REMARK   93  A    between atoms: P_1173  and  O5'_1176 
REMARK   94  A    between atoms: O5'_1176  and  C5'_1177 
REMARK   95  A    between atoms: C5'_1177  and  C4'_1178 
REMARK       I    between atoms: C1'_1180  and  N1_1181 
REMARK       I    between atoms: C4_1186  and  N4_1187 
REMARK       I    between atoms: C2'_1191  and  O2'_1192 
REMARK   96  A    between atoms: C3'_1194  and  O3'_1195 
REMARK       I    between atoms: O3'_1195  and  P_1196 
REMARK       I    between atoms: P_1196  and  O5'_1199 
REMARK       I    between atoms: O5'_1199  and  C5'_1200 
REMARK       I    between atoms: C5'_1200  and  C4'_1201 
REMARK       I    between atoms: C1'_1203  and  N9_1204 
REMARK       I    between atoms: C2_1207  and  N2_1208 
REMARK       I    between atoms: C2'_1218  and  O2'_1219 
REMARK       I    between atoms: C3'_1221  and  O3'_1222 
REMARK       I    between atoms: O3'_1222  and  P_1223 
REMARK       I    between atoms: P_1223  and  O5'_1226 
REMARK       I    between atoms: O5'_1226  and  C5'_1227 
REMARK       I    between atoms: C5'_1227  and  C4'_1228 
REMARK       I    between atoms: C1'_1230  and  N9_1231 
REMARK       I    between atoms: C2_1234  and  N2_1235 
REMARK       I    between atoms: C2'_1245  and  O2'_1246 
REMARK       I    between atoms: C3'_1248  and  O3'_1249 
REMARK       I    between atoms: O3'_1249  and  P_1250 
REMARK       I    between atoms: P_1250  and  O5'_1253 
REMARK       I    between atoms: O5'_1253  and  C5'_1254 
REMARK       I    between atoms: C5'_1254  and  C4'_1255 
REMARK       I    between atoms: C1'_1257  and  N9_1258 
REMARK       I    between atoms: C2_1261  and  N2_1262 
REMARK       I    between atoms: C2'_1272  and  O2'_1273 
REMARK       I    between atoms: C3'_1275  and  O3'_1276 
REMARK       I    between atoms: O3'_1276  and  P_1277 
REMARK       I    between atoms: P_1277  and  O5'_1280 
REMARK       I    between atoms: O5'_1280  and  C5'_1281 
REMARK       I    between atoms: C5'_1281  and  C4'_1282 
REMARK       I    between atoms: C1'_1284  and  N9_1285 
REMARK       I    between atoms: C2_1288  and  N2_1289 
REMARK       I    between atoms: C2'_1299  and  O2'_1300 
REMARK       I    between atoms: C3'_1302  and  O3'_1303 
REMARK       I    between atoms: O3'_1303  and  P_1304 
REMARK       I    between atoms: P_1304  and  O5'_1307 
REMARK       I    between atoms: O5'_1307  and  C5'_1308 
REMARK       I    between atoms: C5'_1308  and  C4'_1309 
REMARK       I    between atoms: C1'_1311  and  N1_1312 
REMARK       I    between atoms: C2'_1321  and  O2'_1322 
REMARK   97  A    between atoms: C3'_1324  and  O3'_1325 
REMARK   98  A    between atoms: O3'_1325  and  P_1326 
REMARK   99  A    between atoms: P_1326  and  O5'_1329 
REMARK  100  A    between atoms: O5'_1329  and  C5'_1330 
REMARK  101  A    between atoms: C5'_1330  and  C4'_1331 
REMARK       I    between atoms: C1'_1333  and  N1_1334 
REMARK       I    between atoms: C4_1339  and  N4_1340 
REMARK  102  A    between atoms: C2'_1344  and  O2'_1345 
REMARK  103  A    between atoms: C3'_1347  and  O3'_1348 
REMARK  104  A    between atoms: O3'_1348  and  P_1349 
REMARK       I    between atoms: P_1349  and  O5'_1352 
REMARK       I    between atoms: O5'_1352  and  C5'_1353 
REMARK       I    between atoms: C5'_1353  and  C4'_1354 
REMARK       I    between atoms: C1'_1356  and  N9_1357 
REMARK       I    between atoms: C6_1362  and  N6_1363 
REMARK       I    between atoms: C2'_1369  and  O2'_1370 
REMARK       I    between atoms: C3'_1372  and  O3'_1373 
ROOT
ATOM      1 'HO5   G A   1      -0.315   0.025  -0.099  1.00  0.00     0.209 HD
ATOM      2  O5'   G A   1       0.163  -0.591  -0.661  1.00  0.00    -0.398 OA
ATOM      3  C5'   G A   1       1.535  -0.542  -0.259  1.00  0.00     0.198 C 
ATOM      4  C4'   G A   1       1.660  -0.183   1.205  1.00  0.00     0.180 C 
ATOM      5  O4'   G A   1       0.374   0.307   1.685  1.00  0.00    -0.353 OA
ATOM      6  C1'   G A   1       0.083  -0.272   2.945  1.00  0.00     0.262 C 
ATOM      7  N9    G A   1      -1.004  -1.232   2.773  1.00  0.00    -0.293 N 
ATOM      8  C4    G A   1      -1.702  -1.861   3.775  1.00  0.00     0.187 A 
ATOM      9  N3    G A   1      -1.508  -1.697   5.100  1.00  0.00    -0.044 NA
ATOM     10  C2    G A   1      -2.335  -2.439   5.814  1.00  0.00     0.703 A 
ATOM     11  N2    G A   1      -2.280  -2.396   7.147  1.00  0.00    -0.233 N 
ATOM     12  H21   G A   1      -1.605  -1.796   7.597  1.00  0.00     0.174 HD
ATOM     13  H22   G A   1      -2.912  -2.958   7.701  1.00  0.00     0.174 HD
ATOM     14  N1    G A   1      -3.277  -3.276   5.274  1.00  0.00    -0.153 N 
ATOM     15  H1    G A   1      -3.859  -3.798   5.911  1.00  0.00     0.187 HD
ATOM     16  C6    G A   1      -3.493  -3.465   3.914  1.00  0.00     0.292 A 
ATOM     17  O6    G A   1      -4.369  -4.251   3.534  1.00  0.00    -0.265 OA
ATOM     18  C5    G A   1      -2.614  -2.672   3.132  1.00  0.00     0.173 A 
ATOM     19  N7    G A   1      -2.493  -2.554   1.754  1.00  0.00    -0.234 NA
ATOM     20  C8    G A   1      -1.529  -1.691   1.590  1.00  0.00     0.214 A 
ATOM     21  C2'   G A   1       1.378  -0.903   3.449  1.00  0.00     0.199 C 
ATOM     22  O2'   G A   1       2.154   0.095   4.085  1.00  0.00    -0.388 OA
ATOM     23 'HO2   G A   1       3.024  -0.278   4.227  1.00  0.00     0.210 HD
ATOM     24  C3'   G A   1       2.006  -1.341   2.133  1.00  0.00     0.198 C 
ATOM     25  O3'   G A   1       3.414  -1.534   2.236  1.00  0.00    -0.279 OA
ATOM     26  P     A A   2       4.008  -3.022   2.380  1.00  0.00     0.408 P 
ATOM     27  OP1   A A   2       5.488  -2.911   2.328  1.00  0.00    -0.624 OA
ATOM     28  OP2   A A   2       3.305  -3.905   1.415  1.00  0.00    -0.624 OA
ATOM     29  O5'   A A   2       3.592  -3.463   3.854  1.00  0.00    -0.287 OA
ATOM     30  C5'   A A   2       4.117  -2.792   4.997  1.00  0.00     0.216 C 
ATOM     31  C4'   A A   2       3.569  -3.408   6.263  1.00  0.00     0.180 C 
ATOM     32  O4'   A A   2       2.150  -3.105   6.362  1.00  0.00    -0.353 OA
ATOM     33  C1'   A A   2       1.461  -4.221   6.900  1.00  0.00     0.262 C 
ATOM     34  N9    A A   2       0.530  -4.721   5.888  1.00  0.00    -0.294 N 
ATOM     35  C4    A A   2      -0.551  -5.538   6.112  1.00  0.00     0.167 A 
ATOM     36  N3    A A   2      -0.967  -6.035   7.290  1.00  0.00    -0.222 NA
ATOM     37  C2    A A   2      -2.050  -6.790   7.125  1.00  0.00     0.237 A 
ATOM     38  N1    A A   2      -2.714  -7.085   5.999  1.00  0.00    -0.222 NA
ATOM     39  C6    A A   2      -2.269  -6.570   4.833  1.00  0.00     0.155 A 
ATOM     40  N6    A A   2      -2.931  -6.863   3.713  1.00  0.00    -0.382 N 
ATOM     41  H61   A A   2      -2.615  -6.488   2.831  1.00  0.00     0.157 HD
ATOM     42  H62   A A   2      -3.747  -7.459   3.746  1.00  0.00     0.157 HD
ATOM     43  C5    A A   2      -1.128  -5.750   4.873  1.00  0.00     0.149 A 
ATOM     44  N7    A A   2      -0.424  -5.077   3.884  1.00  0.00    -0.236 NA
ATOM     45  C8    A A   2       0.546  -4.484   4.536  1.00  0.00     0.214 A 
ATOM     46  C2'   A A   2       2.513  -5.247   7.319  1.00  0.00     0.199 C 
ATOM     47  O2'   A A   2       2.903  -4.979   8.653  1.00  0.00    -0.388 OA
ATOM     48 'HO2   A A   2       3.829  -5.214   8.722  1.00  0.00     0.210 HD
ATOM     49  C3'   A A   2       3.635  -4.927   6.340  1.00  0.00     0.198 C 
ATOM     50  O3'   A A   2       4.906  -5.379   6.798  1.00  0.00    -0.279 OA
ATOM     51  P     C A   3       5.475  -6.801   6.303  1.00  0.00     0.408 P 
ATOM     52  OP1   C A   3       6.880  -6.899   6.774  1.00  0.00    -0.624 OA
ATOM     53  OP2   C A   3       5.174  -6.955   4.857  1.00  0.00    -0.624 OA
ATOM     54  O5'   C A   3       4.605  -7.866   7.109  1.00  0.00    -0.287 OA
ATOM     55  C5'   C A   3       4.745  -8.010   8.521  1.00  0.00     0.216 C 
ATOM     56  C4'   C A   3       3.614  -8.844   9.078  1.00  0.00     0.180 C 
ATOM     57  O4'   C A   3       2.342  -8.259   8.684  1.00  0.00    -0.353 OA
ATOM     58  C1'   C A   3       1.385  -9.289   8.494  1.00  0.00     0.264 C 
ATOM     59  N1    C A   3       0.904  -9.237   7.103  1.00  0.00    -0.278 N 
ATOM     60  C6    C A   3       1.578  -8.523   6.151  1.00  0.00     0.102 A 
ATOM     61  C2    C A   3      -0.257  -9.939   6.766  1.00  0.00     0.352 A 
ATOM     62  O2    C A   3      -0.851 -10.577   7.646  1.00  0.00    -0.244 OA
ATOM     63  N3    C A   3      -0.704  -9.906   5.492  1.00  0.00    -0.177 NA
ATOM     64  C4    C A   3      -0.040  -9.207   4.571  1.00  0.00     0.128 A 
ATOM     65  N4    C A   3      -0.518  -9.207   3.327  1.00  0.00    -0.384 N 
ATOM     66  H41   C A   3      -0.045  -8.692   2.599  1.00  0.00     0.157 HD
ATOM     67  H42   C A   3      -1.357  -9.729   3.115  1.00  0.00     0.157 HD
ATOM     68  C5    C A   3       1.145  -8.478   4.884  1.00  0.00     0.067 A 
ATOM     69  C2'   C A   3       2.065 -10.612   8.848  1.00  0.00     0.199 C 
ATOM     70  O2'   C A   3       1.858 -10.873  10.224  1.00  0.00    -0.388 OA
ATOM     71 'HO2   C A   3       2.724 -10.942  10.629  1.00  0.00     0.210 HD
ATOM     72  C3'   C A   3       3.521 -10.273   8.562  1.00  0.00     0.198 C 
ATOM     73  O3'   C A   3       4.426 -11.151   9.227  1.00  0.00    -0.279 OA
ATOM     74  P     C A   4       4.873 -12.526   8.518  1.00  0.00     0.408 P 
ATOM     75  OP1   C A   4       6.056 -13.045   9.247  1.00  0.00    -0.624 OA
ATOM     76  OP2   C A   4       4.961 -12.289   7.054  1.00  0.00    -0.624 OA
ATOM     77  O5'   C A   4       3.650 -13.516   8.781  1.00  0.00    -0.287 OA
ATOM     78  C5'   C A   4       3.075 -13.648  10.081  1.00  0.00     0.216 C 
ATOM     79  C4'   C A   4       1.969 -14.679  10.064  1.00  0.00     0.180 C 
ATOM     80  O4'   C A   4       0.755 -14.055   9.557  1.00  0.00    -0.353 OA
ATOM     81  C1'   C A   4       0.107 -14.932   8.652  1.00  0.00     0.264 C 
ATOM     82  N1    C A   4       0.219 -14.369   7.295  1.00  0.00    -0.278 N 
ATOM     83  C6    C A   4       1.274 -13.569   6.955  1.00  0.00     0.102 A 
ATOM     84  C2    C A   4      -0.770 -14.669   6.353  1.00  0.00     0.352 A 
ATOM     85  O2    C A   4      -1.718 -15.394   6.686  1.00  0.00    -0.244 OA
ATOM     86  N3    C A   4      -0.669 -14.161   5.104  1.00  0.00    -0.177 NA
ATOM     87  C4    C A   4       0.365 -13.381   4.783  1.00  0.00     0.128 A 
ATOM     88  N4    C A   4       0.423 -12.907   3.540  1.00  0.00    -0.384 N 
ATOM     89  H41   C A   4       1.189 -12.315   3.253  1.00  0.00     0.157 HD
ATOM     90  H42   C A   4      -0.304 -13.144   2.878  1.00  0.00     0.157 HD
ATOM     91  C5    C A   4       1.386 -13.057   5.723  1.00  0.00     0.067 A 
ATOM     92  C2'   C A   4       0.773 -16.296   8.809  1.00  0.00     0.199 C 
ATOM     93  O2'   C A   4       0.163 -16.980   9.888  1.00  0.00    -0.388 OA
ATOM     94 'HO2   C A   4       0.822 -17.577  10.245  1.00  0.00     0.210 HD
ATOM     95  C3'   C A   4       2.196 -15.877   9.149  1.00  0.00     0.198 C 
ATOM     96  O3'   C A   4       2.928 -16.915   9.797  1.00  0.00    -0.279 OA
ATOM     97  P     T A   5       4.133 -17.647   9.022  1.00  0.00     0.408 P 
ATOM     98  OP1   T A   5       4.793 -18.569   9.982  1.00  0.00    -0.624 OA
ATOM     99  OP2   T A   5       4.939 -16.609   8.330  1.00  0.00    -0.624 OA
ATOM    100  O5'   T A   5       3.402 -18.525   7.908  1.00  0.00    -0.287 OA
ATOM    101  C5'   T A   5       2.870 -19.815   8.214  1.00  0.00     0.216 C 
ATOM    102  C4'   T A   5       1.507 -19.984   7.579  1.00  0.00     0.180 C 
ATOM    103  O4'   T A   5       0.895 -18.675   7.412  1.00  0.00    -0.353 OA
ATOM    104  C1'   T A   5       0.209 -18.618   6.174  1.00  0.00     0.264 C 
ATOM    105  N1    T A   5       0.862 -17.610   5.325  1.00  0.00    -0.280 N 
ATOM    106  C6    T A   5       1.997 -16.950   5.743  1.00  0.00     0.104 A 
ATOM    107  C2    T A   5       0.300 -17.343   4.088  1.00  0.00     0.331 A 
ATOM    108  O2    T A   5      -0.704 -17.902   3.680  1.00  0.00    -0.246 OA
ATOM    109  N3    T A   5       0.957 -16.396   3.346  1.00  0.00    -0.275 N 
ATOM    110  H3    T A   5       0.563 -16.171   2.447  1.00  0.00     0.173 HD
ATOM    111  C4    T A   5       2.089 -15.702   3.702  1.00  0.00     0.250 A 
ATOM    112  O4    T A   5       2.567 -14.884   2.916  1.00  0.00    -0.268 OA
ATOM    113  C5    T A   5       2.607 -16.029   4.992  1.00  0.00     0.092 A 
ATOM    114  C2'   T A   5       0.221 -20.027   5.581  1.00  0.00     0.199 C 
ATOM    115  O2'   T A   5      -0.917 -20.725   6.053  1.00  0.00    -0.388 OA
ATOM    116 'HO2   T A   5      -0.594 -21.505   6.506  1.00  0.00     0.210 HD
ATOM    117  C3'   T A   5       1.505 -20.588   6.180  1.00  0.00     0.198 C 
ATOM    118  O3'   T A   5       1.507 -22.013   6.222  1.00  0.00    -0.279 OA
ATOM    119  P     C A   6       2.732 -22.834   5.576  1.00  0.00     0.408 P 
ATOM    120  OP1   C A   6       2.586 -24.249   6.004  1.00  0.00    -0.624 OA
ATOM    121  OP2   C A   6       3.991 -22.105   5.874  1.00  0.00    -0.624 OA
ATOM    122  O5'   C A   6       2.466 -22.749   4.005  1.00  0.00    -0.287 OA
ATOM    123  C5'   C A   6       2.732 -23.859   3.143  1.00  0.00     0.216 C 
ATOM    124  C4'   C A   6       1.603 -24.034   2.148  1.00  0.00     0.180 C 
ATOM    125  O4'   C A   6       0.540 -23.086   2.468  1.00  0.00    -0.353 OA
ATOM    126  C1'   C A   6       0.144 -22.404   1.292  1.00  0.00     0.264 C 
ATOM    127  N1    C A   6       0.744 -21.059   1.300  1.00  0.00    -0.278 N 
ATOM    128  C6    C A   6       1.405 -20.588   2.400  1.00  0.00     0.102 A 
ATOM    129  C2    C A   6       0.641 -20.276   0.152  1.00  0.00     0.352 A 
ATOM    130  O2    C A   6       0.014 -20.717  -0.824  1.00  0.00    -0.244 OA
ATOM    131  N3    C A   6       1.219 -19.058   0.127  1.00  0.00    -0.177 NA
ATOM    132  C4    C A   6       1.872 -18.608   1.197  1.00  0.00     0.128 A 
ATOM    133  N4    C A   6       2.435 -17.403   1.115  1.00  0.00    -0.384 N 
ATOM    134  H41   C A   6       2.945 -17.007   1.891  1.00  0.00     0.157 HD
ATOM    135  H42   C A   6       2.347 -16.886   0.250  1.00  0.00     0.157 HD
ATOM    136  C5    C A   6       1.978 -19.376   2.394  1.00  0.00     0.067 A 
ATOM    137  C2'   C A   6       0.628 -23.261   0.129  1.00  0.00     0.199 C 
ATOM    138  O2'   C A   6      -0.277 -24.333  -0.063  1.00  0.00    -0.388 OA
ATOM    139 'HO2   C A   6       0.195 -25.137   0.151  1.00  0.00     0.210 HD
ATOM    140  C3'   C A   6       1.956 -23.741   0.692  1.00  0.00     0.198 C 
ATOM    141  O3'   C A   6       2.450 -24.883  -0.002  1.00  0.00    -0.279 OA
ATOM    142  P     G A   7       3.752 -24.741  -0.936  1.00  0.00     0.408 P 
ATOM    143  OP1   G A   7       3.685 -23.409  -1.592  1.00  0.00    -0.624 OA
ATOM    144  OP2   G A   7       4.929 -25.089  -0.102  1.00  0.00    -0.624 OA
ATOM    145  O5'   G A   7       3.560 -25.858  -2.058  1.00  0.00    -0.287 OA
ATOM    146  C5'   G A   7       4.066 -25.674  -3.385  1.00  0.00     0.216 C 
ATOM    147  C4'   G A   7       5.223 -26.615  -3.640  1.00  0.00     0.180 C 
ATOM    148  O4'   G A   7       6.256 -25.891  -4.365  1.00  0.00    -0.353 OA
ATOM    149  C1'   G A   7       7.395 -25.777  -3.549  1.00  0.00     0.262 C 
ATOM    150  N9    G A   7       7.291 -24.518  -2.817  1.00  0.00    -0.293 N 
ATOM    151  C4    G A   7       7.072 -23.288  -3.378  1.00  0.00     0.187 A 
ATOM    152  N3    G A   7       6.935 -23.037  -4.695  1.00  0.00    -0.044 NA
ATOM    153  C2    G A   7       6.729 -21.759  -4.934  1.00  0.00     0.703 A 
ATOM    154  N2    G A   7       6.575 -21.350  -6.191  1.00  0.00    -0.233 N 
ATOM    155  H21   G A   7       6.620 -22.027  -6.937  1.00  0.00     0.174 HD
ATOM    156  H22   G A   7       6.410 -20.374  -6.397  1.00  0.00     0.174 HD
ATOM    157  N1    G A   7       6.659 -20.795  -3.960  1.00  0.00    -0.153 N 
ATOM    158  H1    G A   7       6.495 -19.843  -4.252  1.00  0.00     0.187 HD
ATOM    159  C6    G A   7       6.796 -21.029  -2.595  1.00  0.00     0.292 A 
ATOM    160  O6    G A   7       6.711 -20.086  -1.799  1.00  0.00    -0.265 OA
ATOM    161  C5    G A   7       7.023 -22.405  -2.322  1.00  0.00     0.173 A 
ATOM    162  N7    G A   7       7.215 -23.067  -1.117  1.00  0.00    -0.234 NA
ATOM    163  C8    G A   7       7.372 -24.316  -1.461  1.00  0.00     0.214 A 
ATOM    164  C2'   G A   7       7.390 -27.040  -2.697  1.00  0.00     0.199 C 
ATOM    165  O2'   G A   7       7.843 -28.115  -3.497  1.00  0.00    -0.388 OA
ATOM    166 'HO2   G A   7       7.228 -28.203  -4.229  1.00  0.00     0.210 HD
ATOM    167  C3'   G A   7       5.901 -27.162  -2.382  1.00  0.00     0.198 C 
ENDROOT
BRANCH 167 168
ATOM    168  O3'   G A   7       5.489 -28.500  -2.130  1.00  0.00    -0.279 OA
BRANCH 168 169
ATOM    169  P     T A   8       3.936 -28.812  -1.843  1.00  0.00     0.408 P 
ATOM    170  OP2   T A   8       3.167 -28.538  -3.084  1.00  0.00    -0.624 OA
ATOM    171  OP1   T A   8       3.562 -28.125  -0.581  1.00  0.00    -0.624 OA
BRANCH 169 172
ATOM    172  O5'   T A   8       3.900 -30.382  -1.577  1.00  0.00    -0.287 OA
BRANCH 172 173
ATOM    173  C5'   T A   8       2.841 -31.187  -2.091  1.00  0.00     0.216 C 
BRANCH 173 174
ATOM    174  C4'   T A   8       3.327 -32.596  -2.326  1.00  0.00     0.180 C 
ATOM    175  O4'   T A   8       4.200 -32.605  -3.489  1.00  0.00    -0.353 OA
ATOM    176  C1'   T A   8       5.303 -33.463  -3.253  1.00  0.00     0.264 C 
ATOM    177  C2'   T A   8       5.028 -34.207  -1.946  1.00  0.00     0.199 C 
ATOM    178  N1    T A   8       6.527 -32.649  -3.221  1.00  0.00    -0.280 N 
ATOM    179  C3'   T A   8       4.172 -33.187  -1.206  1.00  0.00     0.198 C 
ATOM    180  C6    T A   8       6.566 -31.447  -2.551  1.00  0.00     0.104 A 
ATOM    181  C2    T A   8       7.642 -33.131  -3.883  1.00  0.00     0.331 A 
ATOM    182  C5    T A   8       7.669 -30.696  -2.494  1.00  0.00     0.092 A 
ATOM    183  C4    T A   8       8.863 -31.127  -3.147  1.00  0.00     0.250 A 
ATOM    184  N3    T A   8       8.753 -32.331  -3.805  1.00  0.00    -0.275 N 
ATOM    185  O4    T A   8       9.943 -30.536  -3.144  1.00  0.00    -0.268 OA
ATOM    186  H3    T A   8       9.579 -32.650  -4.287  1.00  0.00     0.173 HD
ATOM    187  O2    T A   8       7.648 -34.187  -4.491  1.00  0.00    -0.246 OA
BRANCH 177 188
ATOM    188  O2'   T A   8       4.293 -35.381  -2.238  1.00  0.00    -0.388 OA
ATOM    189 'HO2   T A   8       4.131 -35.820  -1.401  1.00  0.00     0.210 HD
ENDBRANCH 177 188
BRANCH 179 190
ATOM    190  O3'   T A   8       3.356 -33.777  -0.197  1.00  0.00    -0.279 OA
BRANCH 190 191
ATOM    191  P     G A   9       3.350 -33.168   1.293  1.00  0.00     0.408 P 
ATOM    192  OP1   G A   9       1.935 -32.891   1.647  1.00  0.00    -0.624 OA
ATOM    193  OP2   G A   9       4.356 -32.079   1.390  1.00  0.00    -0.624 OA
BRANCH 191 194
ATOM    194  O5'   G A   9       3.846 -34.383   2.197  1.00  0.00    -0.287 OA
BRANCH 194 195
ATOM    195  C5'   G A   9       3.485 -35.727   1.879  1.00  0.00     0.216 C 
BRANCH 195 196
ATOM    196  C4'   G A   9       4.684 -36.635   2.010  1.00  0.00     0.180 C 
ATOM    197  O4'   G A   9       5.448 -36.600   0.777  1.00  0.00    -0.353 OA
ATOM    198  C1'   G A   9       6.826 -36.757   1.069  1.00  0.00     0.262 C 
ATOM    199  C2'   G A   9       6.966 -36.927   2.583  1.00  0.00     0.199 C 
ATOM    200  N9    G A   9       7.542 -35.597   0.551  1.00  0.00    -0.293 N 
ATOM    201  C3'   G A   9       5.696 -36.244   3.076  1.00  0.00     0.198 C 
ATOM    202  O3'   G A   9       5.302 -36.696   4.369  1.00  0.00    -0.279 OA
ATOM    203  P     G A  10       5.539 -35.753   5.651  1.00  0.00     0.408 P 
ATOM    204  OP2   G A  10       4.791 -34.487   5.445  1.00  0.00    -0.624 OA
ATOM    205  OP1   G A  10       5.267 -36.578   6.856  1.00  0.00    -0.624 OA
ATOM    206  O5'   G A  10       7.099 -35.426   5.613  1.00  0.00    -0.287 OA
ATOM    207  C8    G A   9       7.245 -34.274   0.767  1.00  0.00     0.214 A 
ATOM    208  C4    G A   9       8.657 -35.617  -0.251  1.00  0.00     0.187 A 
ATOM    209  N7    G A   9       8.073 -33.456   0.176  1.00  0.00    -0.234 NA
ATOM    210  C5    G A   9       8.974 -34.294  -0.471  1.00  0.00     0.173 A 
ATOM    211  C6    G A   9      10.103 -33.989  -1.278  1.00  0.00     0.292 A 
ATOM    212  N1    G A   9      10.731 -35.142  -1.735  1.00  0.00    -0.153 N 
ATOM    213  O6    G A   9      10.552 -32.883  -1.591  1.00  0.00    -0.265 OA
ATOM    214  H1    G A   9      11.544 -35.014  -2.317  1.00  0.00     0.187 HD
ATOM    215  C2    G A   9      10.330 -36.423  -1.455  1.00  0.00     0.703 A 
ATOM    216  N3    G A   9       9.286 -36.723  -0.706  1.00  0.00    -0.044 NA
ATOM    217  N2    G A   9      11.062 -37.402  -1.990  1.00  0.00    -0.233 N 
ATOM    218  H22   G A   9      11.860 -37.196  -2.573  1.00  0.00     0.174 HD
ATOM    219  H21   G A   9      10.796 -38.359  -1.807  1.00  0.00     0.174 HD
BRANCH 199 220
ATOM    220  O2'   G A   9       6.953 -38.308   2.892  1.00  0.00    -0.388 OA
ATOM    221 'HO2   G A   9       6.437 -38.394   3.694  1.00  0.00     0.210 HD
ENDBRANCH 199 220
BRANCH 206 222
ATOM    222  C5'   G A  10       8.070 -36.438   5.879  1.00  0.00     0.216 C 
BRANCH 222 223
ATOM    223  C4'   G A  10       9.291 -36.241   5.007  1.00  0.00     0.180 C 
ATOM    224  O4'   G A  10       8.956 -35.383   3.886  1.00  0.00    -0.353 OA
ATOM    225  C1'   G A  10      10.094 -34.626   3.510  1.00  0.00     0.262 C 
ATOM    226  C2'   G A  10      11.233 -34.983   4.469  1.00  0.00     0.199 C 
ATOM    227  C3'   G A  10      10.464 -35.531   5.668  1.00  0.00     0.198 C 
BRANCH 225 228
ATOM    228  N9    G A  10       9.733 -33.211   3.525  1.00  0.00    -0.293 N 
ATOM    229  C4    G A  10      10.565 -32.152   3.251  1.00  0.00     0.187 A 
ATOM    230  N3    G A  10      11.871 -32.234   2.921  1.00  0.00    -0.044 NA
ATOM    231  C5    G A  10       9.782 -31.024   3.388  1.00  0.00     0.173 A 
ATOM    232  C2    G A  10      12.405 -31.044   2.717  1.00  0.00     0.703 A 
ATOM    233  N1    G A  10      11.715 -29.863   2.825  1.00  0.00    -0.153 N 
ATOM    234  N2    G A  10      13.694 -30.943   2.383  1.00  0.00    -0.233 N 
ATOM    235  C6    G A  10      10.372 -29.751   3.164  1.00  0.00     0.292 A 
ATOM    236  H1    G A  10      12.225 -29.012   2.645  1.00  0.00     0.187 HD
ATOM    237  O6    G A  10       9.847 -28.632   3.236  1.00  0.00    -0.265 OA
ATOM    238  H21   G A  10      14.247 -31.782   2.291  1.00  0.00     0.174 HD
ATOM    239  H22   G A  10      14.111 -30.037   2.222  1.00  0.00     0.174 HD
ATOM    240  N7    G A  10       8.483 -31.367   3.742  1.00  0.00    -0.234 NA
ATOM    241  C8    G A  10       8.502 -32.670   3.811  1.00  0.00     0.214 A 
ENDBRANCH 225 228
BRANCH 226 242
ATOM    242  O2'   G A  10      12.028 -35.990   3.872  1.00  0.00    -0.388 OA
ATOM    243 'HO2   G A  10      12.176 -36.655   4.544  1.00  0.00     0.210 HD
ENDBRANCH 226 242
BRANCH 227 244
ATOM    244  O3'   G A  10      11.243 -36.432   6.454  1.00  0.00    -0.279 OA
BRANCH 244 245
ATOM    245  P     C A  11      11.939 -35.918   7.811  1.00  0.00     0.408 P 
ATOM    246  OP2   C A  11      10.920 -35.219   8.634  1.00  0.00    -0.624 OA
ATOM    247  OP1   C A  11      12.681 -37.070   8.386  1.00  0.00    -0.624 OA
BRANCH 245 248
ATOM    248  O5'   C A  11      13.002 -34.842   7.312  1.00  0.00    -0.287 OA
BRANCH 248 249
ATOM    249  C5'   C A  11      14.044 -35.206   6.409  1.00  0.00     0.216 C 
BRANCH 249 250
ATOM    250  C4'   C A  11      14.961 -34.030   6.167  1.00  0.00     0.180 C 
ATOM    251  O4'   C A  11      14.321 -33.117   5.239  1.00  0.00    -0.353 OA
ATOM    252  C1'   C A  11      14.697 -31.786   5.549  1.00  0.00     0.264 C 
ATOM    253  C2'   C A  11      15.636 -31.830   6.757  1.00  0.00     0.199 C 
ATOM    254  C3'   C A  11      15.263 -33.169   7.384  1.00  0.00     0.198 C 
BRANCH 252 255
ATOM    255  N1    C A  11      13.476 -30.998   5.783  1.00  0.00    -0.278 N 
ATOM    256  C2    C A  11      13.523 -29.617   5.590  1.00  0.00     0.352 A 
ATOM    257  O2    C A  11      14.585 -29.098   5.222  1.00  0.00    -0.244 OA
ATOM    258  N3    C A  11      12.413 -28.879   5.807  1.00  0.00    -0.177 NA
ATOM    259  C4    C A  11      11.286 -29.473   6.199  1.00  0.00     0.128 A 
ATOM    260  N4    C A  11      10.217 -28.703   6.400  1.00  0.00    -0.384 N 
ATOM    261  C5    C A  11      11.205 -30.882   6.402  1.00  0.00     0.067 A 
ATOM    262  H41   C A  11       9.343 -29.110   6.697  1.00  0.00     0.157 HD
ATOM    263  H42   C A  11      10.288 -27.706   6.252  1.00  0.00     0.157 HD
ATOM    264  C6    C A  11      12.315 -31.599   6.184  1.00  0.00     0.102 A 
ENDBRANCH 252 255
BRANCH 253 265
ATOM    265  O2'   C A  11      16.970 -31.838   6.285  1.00  0.00    -0.388 OA
ATOM    266 'HO2   C A  11      17.513 -32.186   6.992  1.00  0.00     0.210 HD
ENDBRANCH 253 265
BRANCH 254 267
ATOM    267  O3'   C A  11      16.321 -33.717   8.167  1.00  0.00    -0.279 OA
BRANCH 267 268
ATOM    268  P     G A  12      16.421 -33.370   9.734  1.00  0.00     0.408 P 
ATOM    269  OP2   G A  12      15.045 -33.232  10.279  1.00  0.00    -0.624 OA
ATOM    270  OP1   G A  12      17.353 -34.355  10.339  1.00  0.00    -0.624 OA
BRANCH 268 271
ATOM    271  O5'   G A  12      17.132 -31.943   9.768  1.00  0.00    -0.287 OA
BRANCH 271 272
ATOM    272  C5'   G A  12      16.422 -30.770  10.167  1.00  0.00     0.216 C 
BRANCH 272 273
ATOM    273  C4'   G A  12      16.927 -29.571   9.398  1.00  0.00     0.180 C 
ATOM    274  O4'   G A  12      15.963 -29.234   8.365  1.00  0.00    -0.353 OA
ATOM    275  C1'   G A  12      15.905 -27.827   8.206  1.00  0.00     0.262 C 
ATOM    276  N9    G A  12      14.545 -27.384   8.497  1.00  0.00    -0.293 N 
ATOM    277  C2'   G A  12      16.957 -27.212   9.130  1.00  0.00     0.199 C 
ATOM    278  C4    G A  12      14.097 -26.085   8.519  1.00  0.00     0.187 A 
ATOM    279  C8    G A  12      13.462 -28.171   8.806  1.00  0.00     0.214 A 
ATOM    280  N3    G A  12      14.840 -24.987   8.270  1.00  0.00    -0.044 NA
ATOM    281  C5    G A  12      12.759 -26.164   8.844  1.00  0.00     0.173 A 
ATOM    282  C2    G A  12      14.129 -23.879   8.366  1.00  0.00     0.703 A 
ATOM    283  N1    G A  12      12.796 -23.846   8.684  1.00  0.00    -0.153 N 
ATOM    284  N2    G A  12      14.712 -22.698   8.147  1.00  0.00    -0.233 N 
ATOM    285  C6    G A  12      12.010 -24.962   8.948  1.00  0.00     0.292 A 
ATOM    286  H1    G A  12      12.347 -22.944   8.731  1.00  0.00     0.187 HD
ATOM    287  O6    G A  12      10.815 -24.818   9.231  1.00  0.00    -0.265 OA
ATOM    288  H22   G A  12      14.178 -21.845   8.208  1.00  0.00     0.174 HD
ATOM    289  H21   G A  12      15.693 -22.667   7.909  1.00  0.00     0.174 HD
ATOM    290  N7    G A  12      12.373 -27.486   9.022  1.00  0.00    -0.234 NA
ATOM    291  C3'   G A  12      17.075 -28.288  10.204  1.00  0.00     0.198 C 
BRANCH 277 292
ATOM    292  O2'   G A  12      18.166 -27.071   8.409  1.00  0.00    -0.388 OA
ATOM    293 'HO2   G A  12      18.861 -27.435   8.958  1.00  0.00     0.210 HD
ENDBRANCH 277 292
BRANCH 291 294
ATOM    294  O3'   G A  12      18.324 -28.236  10.890  1.00  0.00    -0.279 OA
BRANCH 294 295
ATOM    295  P     T A  13      18.452 -27.393  12.254  1.00  0.00     0.408 P 
ATOM    296  OP2   T A  13      17.388 -27.846  13.186  1.00  0.00    -0.624 OA
ATOM    297  OP1   T A  13      19.874 -27.449  12.681  1.00  0.00    -0.624 OA
BRANCH 295 298
ATOM    298  O5'   T A  13      18.121 -25.897  11.817  1.00  0.00    -0.287 OA
BRANCH 298 299
ATOM    299  C5'   T A  13      19.023 -25.155  10.998  1.00  0.00     0.216 C 
BRANCH 299 300
ATOM    300  C4'   T A  13      18.850 -23.673  11.240  1.00  0.00     0.180 C 
ATOM    301  O4'   T A  13      17.701 -23.203  10.479  1.00  0.00    -0.353 OA
ATOM    302  C1'   T A  13      16.949 -22.293  11.264  1.00  0.00     0.264 C 
ATOM    303  N1    T A  13      15.654 -22.912  11.585  1.00  0.00    -0.280 N 
ATOM    304  C2'   T A  13      17.790 -21.964  12.495  1.00  0.00     0.199 C 
ATOM    305  C6    T A  13      15.442 -24.261  11.410  1.00  0.00     0.104 A 
ATOM    306  C2    T A  13      14.655 -22.092  12.075  1.00  0.00     0.331 A 
ATOM    307  C5    T A  13      14.276 -24.845  11.702  1.00  0.00     0.092 A 
ATOM    308  C4    T A  13      13.195 -24.064  12.216  1.00  0.00     0.250 A 
ATOM    309  O4    T A  13      12.078 -24.483  12.520  1.00  0.00    -0.268 OA
ATOM    310  N3    T A  13      13.475 -22.726  12.365  1.00  0.00    -0.275 N 
ATOM    311  H3    T A  13      12.736 -22.144  12.729  1.00  0.00     0.173 HD
ATOM    312  O2    T A  13      14.801 -20.895  12.240  1.00  0.00    -0.246 OA
ATOM    313  C3'   T A  13      18.546 -23.273  12.678  1.00  0.00     0.198 C 
ATOM    314  O2'   T A  13      18.671 -20.904  12.176  1.00  0.00    -0.388 OA
ATOM    315  O3'   T A  13      19.734 -23.112  13.448  1.00  0.00    -0.279 OA
ATOM    316  P     C A  14      19.705 -23.394  15.031  1.00  0.00     0.408 P 
ATOM    317  OP2   C A  14      18.903 -24.620  15.276  1.00  0.00    -0.624 OA
ATOM    318  OP1   C A  14      21.106 -23.324  15.519  1.00  0.00    -0.624 OA
ATOM    319  O5'   C A  14      18.906 -22.152  15.631  1.00  0.00    -0.287 OA
ATOM    320  C5'   C A  14      19.480 -20.845  15.641  1.00  0.00     0.216 C 
ATOM    321  C4'   C A  14      18.471 -19.834  16.138  1.00  0.00     0.180 C 
ATOM    322  O4'   C A  14      17.277 -19.906  15.313  1.00  0.00    -0.353 OA
ATOM    323  C3'   C A  14      17.957 -20.054  17.553  1.00  0.00     0.198 C 
ATOM    324  C1'   C A  14      16.130 -19.667  16.111  1.00  0.00     0.264 C 
ATOM    325  N1    C A  14      15.261 -20.855  16.046  1.00  0.00    -0.278 N 
ATOM    326  C2'   C A  14      16.613 -19.338  17.524  1.00  0.00     0.199 C 
ATOM    327  C6    C A  14      15.741 -22.051  15.589  1.00  0.00     0.102 A 
ATOM    328  C2    C A  14      13.930 -20.741  16.458  1.00  0.00     0.352 A 
ATOM    329  C5    C A  14      14.953 -23.131  15.521  1.00  0.00     0.067 A 
ATOM    330  C4    C A  14      13.600 -22.984  15.946  1.00  0.00     0.128 A 
ATOM    331  N3    C A  14      13.123 -21.823  16.397  1.00  0.00    -0.177 NA
ATOM    332  N4    C A  14      12.767 -24.022  15.901  1.00  0.00    -0.384 N 
ATOM    333  H42   C A  14      11.811 -23.908  16.208  1.00  0.00     0.157 HD
ATOM    334  H41   C A  14      13.086 -24.920  15.566  1.00  0.00     0.157 HD
ATOM    335  O2    C A  14      13.519 -19.647  16.873  1.00  0.00    -0.244 OA
ATOM    336  O2'   C A  14      16.776 -17.936  17.630  1.00  0.00    -0.388 OA
ATOM    337 'HO2   C A  14      17.664 -17.781  17.953  1.00  0.00     0.210 HD
ATOM    338  O3'   C A  14      18.845 -19.508  18.526  1.00  0.00    -0.279 OA
ATOM    339  P     T A  15      18.755 -20.000  20.056  1.00  0.00     0.408 P 
ATOM    340  OP2   T A  15      18.630 -21.480  20.067  1.00  0.00    -0.624 OA
ATOM    341  O5'   T A  15      17.384 -19.381  20.581  1.00  0.00    -0.287 OA
ATOM    342  OP1   T A  15      19.870 -19.352  20.794  1.00  0.00    -0.624 OA
ATOM    343  C5'   T A  15      17.213 -17.969  20.701  1.00  0.00     0.216 C 
ATOM    344  C4'   T A  15      15.937 -17.659  21.448  1.00  0.00     0.180 C 
ATOM    345  C3'   T A  15      15.678 -18.505  22.687  1.00  0.00     0.198 C 
ATOM    346  O4'   T A  15      14.801 -17.933  20.582  1.00  0.00    -0.353 OA
ATOM    347  O3'   T A  15      16.348 -17.984  23.832  1.00  0.00    -0.279 OA
ATOM    348  C2'   T A  15      14.162 -18.438  22.811  1.00  0.00     0.199 C 
ATOM    349  P     G A  16      16.802 -18.978  25.012  1.00  0.00     0.408 P 
ATOM    350  O5'   G A  16      15.433 -19.390  25.718  1.00  0.00    -0.287 OA
ATOM    351  OP2   G A  16      17.395 -20.196  24.403  1.00  0.00    -0.624 OA
ATOM    352  OP1   G A  16      17.599 -18.180  25.979  1.00  0.00    -0.624 OA
ATOM    353  C5'   G A  16      14.798 -18.519  26.652  1.00  0.00     0.216 C 
ATOM    354  C4'   G A  16      13.401 -19.006  26.958  1.00  0.00     0.180 C 
ATOM    355  C3'   G A  16      13.311 -20.286  27.776  1.00  0.00     0.198 C 
ATOM    356  O4'   G A  16      12.725 -19.340  25.717  1.00  0.00    -0.353 OA
ATOM    357  C2'   G A  16      11.924 -20.804  27.415  1.00  0.00     0.199 C 
ATOM    358  O3'   G A  16      13.450 -20.032  29.172  1.00  0.00    -0.279 OA
ATOM    359  O2'   G A  16      10.918 -20.103  28.122  1.00  0.00    -0.388 OA
ATOM    360  C1'   G A  16      11.837 -20.423  25.936  1.00  0.00     0.262 C 
ATOM    361 'HO2   G A  16      11.333 -19.746  28.908  1.00  0.00     0.210 HD
ATOM    362  N9    G A  16      12.202 -21.510  25.032  1.00  0.00    -0.293 N 
ATOM    363  C4    G A  16      11.446 -22.622  24.746  1.00  0.00     0.187 A 
ATOM    364  C8    G A  16      13.357 -21.630  24.299  1.00  0.00     0.214 A 
ATOM    365  N3    G A  16      10.231 -22.908  25.259  1.00  0.00    -0.044 NA
ATOM    366  C5    G A  16      12.192 -23.350  23.844  1.00  0.00     0.173 A 
ATOM    367  C2    G A  16       9.756 -24.048  24.793  1.00  0.00     0.703 A 
ATOM    368  N1    G A  16      10.416 -24.846  23.894  1.00  0.00    -0.153 N 
ATOM    369  N2    G A  16       8.562 -24.484  25.201  1.00  0.00    -0.233 N 
ATOM    370  H1    G A  16       9.962 -25.698  23.601  1.00  0.00     0.187 HD
ATOM    371  C6    G A  16      11.667 -24.573  23.353  1.00  0.00     0.292 A 
ATOM    372  O6    G A  16      12.174 -25.362  22.548  1.00  0.00    -0.265 OA
ATOM    373  H22   G A  16       8.188 -25.357  24.855  1.00  0.00     0.174 HD
ATOM    374  H21   G A  16       8.035 -23.934  25.863  1.00  0.00     0.174 HD
ATOM    375  N7    G A  16      13.395 -22.711  23.570  1.00  0.00    -0.234 NA
ATOM    376  P     A A  17      13.961 -21.203  30.151  1.00  0.00     0.408 P 
ATOM    377  O5'   A A  17      12.825 -22.316  30.051  1.00  0.00    -0.287 OA
ATOM    378  OP1   A A  17      13.955 -20.657  31.532  1.00  0.00    -0.624 OA
ATOM    379  OP2   A A  17      15.215 -21.768  29.592  1.00  0.00    -0.624 OA
ATOM    380  C5'   A A  17      11.512 -22.075  30.557  1.00  0.00     0.216 C 
ATOM    381  C4'   A A  17      10.710 -23.355  30.562  1.00  0.00     0.180 C 
ATOM    382  O4'   A A  17      10.313 -23.673  29.203  1.00  0.00    -0.353 OA
ATOM    383  C3'   A A  17      11.453 -24.598  31.026  1.00  0.00     0.198 C 
ATOM    384  C1'   A A  17      10.256 -25.080  29.042  1.00  0.00     0.262 C 
ATOM    385  C2'   A A  17      10.657 -25.723  30.372  1.00  0.00     0.199 C 
ATOM    386  N9    A A  17      11.123 -25.449  27.924  1.00  0.00    -0.294 N 
ATOM    387  O2'   A A  17       9.482 -26.008  31.107  1.00  0.00    -0.388 OA
ATOM    388 'HO2   A A  17       9.609 -25.640  31.982  1.00  0.00     0.210 HD
ATOM    389  C4    A A  17      11.012 -26.581  27.153  1.00  0.00     0.167 A 
ATOM    390  C8    A A  17      12.199 -24.759  27.423  1.00  0.00     0.214 A 
ATOM    391  N3    A A  17      10.102 -27.562  27.273  1.00  0.00    -0.222 NA
ATOM    392  C5    A A  17      12.031 -26.504  26.221  1.00  0.00     0.149 A 
ATOM    393  C2    A A  17      10.298 -28.499  26.348  1.00  0.00     0.237 A 
ATOM    394  N1    A A  17      11.231 -28.562  25.389  1.00  0.00    -0.222 NA
ATOM    395  C6    A A  17      12.132 -27.560  25.298  1.00  0.00     0.155 A 
ATOM    396  N6    A A  17      13.061 -27.625  24.343  1.00  0.00    -0.382 N 
ATOM    397  H62   A A  17      13.081 -28.412  23.710  1.00  0.00     0.157 HD
ATOM    398  H61   A A  17      13.744 -26.887  24.256  1.00  0.00     0.157 HD
ATOM    399  N7    A A  17      12.776 -25.346  26.403  1.00  0.00    -0.236 NA
ATOM    400  O3'   A A  17      11.467 -24.698  32.448  1.00  0.00    -0.279 OA
ATOM    401  P     C A  18      12.756 -25.304  33.196  1.00  0.00     0.408 P 
ATOM    402  O5'   C A  18      12.762 -26.841  32.776  1.00  0.00    -0.287 OA
ATOM    403  OP2   C A  18      13.973 -24.668  32.628  1.00  0.00    -0.624 OA
ATOM    404  OP1   C A  18      12.500 -25.224  34.656  1.00  0.00    -0.624 OA
ATOM    405  C5'   C A  18      11.640 -27.682  33.043  1.00  0.00     0.216 C 
ATOM    406  C4'   C A  18      11.751 -28.964  32.250  1.00  0.00     0.180 C 
ATOM    407  C3'   C A  18      13.078 -29.699  32.388  1.00  0.00     0.198 C 
ATOM    408  O4'   C A  18      11.642 -28.647  30.836  1.00  0.00    -0.353 OA
ATOM    409  C2'   C A  18      13.200 -30.429  31.056  1.00  0.00     0.199 C 
ATOM    410  O3'   C A  18      13.061 -30.594  33.498  1.00  0.00    -0.279 OA
ATOM    411  C1'   C A  18      12.574 -29.415  30.098  1.00  0.00     0.264 C 
ATOM    412  O2'   C A  18      12.417 -31.608  31.049  1.00  0.00    -0.388 OA
ATOM    413  N1    C A  18      13.546 -28.496  29.484  1.00  0.00    -0.278 N 
ATOM    414  C2    C A  18      13.862 -28.651  28.131  1.00  0.00     0.352 A 
ATOM    415  C6    C A  18      14.135 -27.505  30.219  1.00  0.00     0.102 A 
ATOM    416  O2    C A  18      13.310 -29.553  27.485  1.00  0.00    -0.244 OA
ATOM    417  N3    C A  18      14.759 -27.816  27.561  1.00  0.00    -0.177 NA
ATOM    418  C4    C A  18      15.330 -26.855  28.289  1.00  0.00     0.128 A 
ATOM    419  C5    C A  18      15.024 -26.670  29.668  1.00  0.00     0.067 A 
ATOM    420  N4    C A  18      16.210 -26.059  27.685  1.00  0.00    -0.384 N 
ATOM    421  H41   C A  18      16.666 -25.320  28.202  1.00  0.00     0.157 HD
ATOM    422  H42   C A  18      16.420 -26.197  26.707  1.00  0.00     0.157 HD
ATOM    423 'HO2   C A  18      12.214 -31.807  31.963  1.00  0.00     0.210 HD
ATOM    424  P     T A  19      14.340 -30.691  34.469  1.00  0.00     0.408 P 
ATOM    425  O5'   T A  19      15.288 -31.753  33.753  1.00  0.00    -0.287 OA
ATOM    426  OP1   T A  19      13.876 -31.280  35.751  1.00  0.00    -0.624 OA
ATOM    427  OP2   T A  19      15.035 -29.377  34.476  1.00  0.00    -0.624 OA
ATOM    428  C1'   T A  15      13.749 -18.505  21.341  1.00  0.00     0.264 C 
ATOM    429  O2'   T A  15      13.742 -17.197  23.347  1.00  0.00    -0.388 OA
ATOM    430  N1    T A  15      13.519 -19.875  20.859  1.00  0.00    -0.280 N 
ATOM    431  C2    T A  15      12.246 -20.399  20.987  1.00  0.00     0.331 A 
ATOM    432  C6    T A  15      14.537 -20.617  20.302  1.00  0.00     0.104 A 
ATOM    433  N3    T A  15      12.098 -21.681  20.527  1.00  0.00    -0.275 N 
ATOM    434  O2    T A  15      11.318 -19.776  21.471  1.00  0.00    -0.246 OA
ATOM    435  H3    T A  15      11.178 -22.087  20.620  1.00  0.00     0.173 HD
ATOM    436  C4    T A  15      13.066 -22.476  19.960  1.00  0.00     0.250 A 
ATOM    437  O4    T A  15      12.771 -23.611  19.584  1.00  0.00    -0.268 OA
ATOM    438  C5    T A  15      14.354 -21.865  19.860  1.00  0.00     0.092 A 
ATOM    439 'HO2   T A  15      13.720 -17.301  24.299  1.00  0.00     0.210 HD
ATOM    440 'HO2   T A  13      19.515 -21.118  12.574  1.00  0.00     0.210 HD
BRANCH 425 441
ATOM    441  C5'   T A  19      16.659 -31.884  34.128  1.00  0.00     0.216 C 
BRANCH 441 442
ATOM    442  C4'   T A  19      17.413 -32.676  33.086  1.00  0.00     0.180 C 
ATOM    443  O4'   T A  19      17.000 -32.227  31.766  1.00  0.00    -0.353 OA
ATOM    444  C1'   T A  19      18.131 -32.082  30.928  1.00  0.00     0.264 C 
ATOM    445  C2'   T A  19      19.332 -32.682  31.659  1.00  0.00     0.199 C 
ATOM    446  C3'   T A  19      18.926 -32.496  33.117  1.00  0.00     0.198 C 
BRANCH 444 447
ATOM    447  N1    T A  19      18.281 -30.657  30.599  1.00  0.00    -0.280 N 
ATOM    448  C2    T A  19      19.157 -30.320  29.584  1.00  0.00     0.331 A 
ATOM    449  O2    T A  19      19.809 -31.146  28.970  1.00  0.00    -0.246 OA
ATOM    450  N3    T A  19      19.245 -28.979  29.316  1.00  0.00    -0.275 N 
ATOM    451  H3    T A  19      19.870 -28.711  28.572  1.00  0.00     0.173 HD
ATOM    452  C4    T A  19      18.567 -27.961  29.947  1.00  0.00     0.250 A 
ATOM    453  O4    T A  19      18.745 -26.799  29.583  1.00  0.00    -0.268 OA
ATOM    454  C5    T A  19      17.686 -28.389  30.988  1.00  0.00     0.092 A 
ATOM    455  C6    T A  19      17.572 -29.689  31.274  1.00  0.00     0.104 A 
ENDBRANCH 444 447
BRANCH 445 456
ATOM    456  O2'   T A  19      19.427 -34.054  31.324  1.00  0.00    -0.388 OA
ATOM    457 'HO2   T A  19      18.942 -34.533  31.997  1.00  0.00     0.210 HD
ENDBRANCH 445 456
BRANCH 446 458
ATOM    458  O3'   T A  19      19.538 -33.456  33.974  1.00  0.00    -0.279 OA
BRANCH 458 459
ATOM    459  P     C A  20      20.205 -32.981  35.358  1.00  0.00     0.408 P 
ATOM    460  OP2   C A  20      19.179 -32.262  36.155  1.00  0.00    -0.624 OA
ATOM    461  OP1   C A  20      20.895 -34.160  35.942  1.00  0.00    -0.624 OA
BRANCH 459 462
ATOM    462  O5'   C A  20      21.315 -31.934  34.902  1.00  0.00    -0.287 OA
BRANCH 462 463
ATOM    463  C5'   C A  20      22.022 -31.144  35.856  1.00  0.00     0.216 C 
ATOM    464  C4'   C A  20      23.250 -30.538  35.218  1.00  0.00     0.180 C 
ATOM    465  C3'   C A  20      23.072 -30.089  33.773  1.00  0.00     0.198 C 
ATOM    466  O4'   C A  20      24.297 -31.547  35.173  1.00  0.00    -0.353 OA
ATOM    467  C2'   C A  20      24.474 -30.248  33.197  1.00  0.00     0.199 C 
ATOM    468  C1'   C A  20      24.945 -31.512  33.915  1.00  0.00     0.264 C 
ATOM    469  N1    C A  20      24.631 -32.758  33.195  1.00  0.00    -0.278 N 
ATOM    470  C2    C A  20      25.628 -33.361  32.422  1.00  0.00     0.352 A 
ATOM    471  C6    C A  20      23.388 -33.321  33.278  1.00  0.00     0.102 A 
ATOM    472  O2    C A  20      26.746 -32.831  32.365  1.00  0.00    -0.244 OA
ATOM    473  N3    C A  20      25.347 -34.505  31.758  1.00  0.00    -0.177 NA
ATOM    474  C4    C A  20      24.131 -35.045  31.845  1.00  0.00     0.128 A 
ATOM    475  C5    C A  20      23.097 -34.453  32.626  1.00  0.00     0.067 A 
ATOM    476  N4    C A  20      23.903 -36.173  31.173  1.00  0.00    -0.384 N 
ATOM    477  H42   C A  20      24.647 -36.582  30.625  1.00  0.00     0.157 HD
ATOM    478  H41   C A  20      22.997 -36.615  31.212  1.00  0.00     0.157 HD
BRANCH 465 479
ATOM    479  O3'   C A  20      22.601 -28.746  33.699  1.00  0.00    -0.279 OA
BRANCH 479 480
ATOM    480  P     C A  21      21.767 -28.262  32.412  1.00  0.00     0.408 P 
ATOM    481  OP2   C A  21      20.649 -29.217  32.190  1.00  0.00    -0.624 OA
ATOM    482  OP1   C A  21      21.472 -26.819  32.593  1.00  0.00    -0.624 OA
BRANCH 480 483
ATOM    483  O5'   C A  21      22.800 -28.409  31.209  1.00  0.00    -0.287 OA
BRANCH 483 484
ATOM    484  C5'   C A  21      22.350 -28.647  29.877  1.00  0.00     0.216 C 
BRANCH 484 485
ATOM    485  C4'   C A  21      23.530 -28.816  28.951  1.00  0.00     0.180 C 
ATOM    486  C3'   C A  21      23.177 -29.112  27.499  1.00  0.00     0.198 C 
ATOM    487  O3'   C A  21      22.963 -27.912  26.760  1.00  0.00    -0.279 OA
ATOM    488  C2'   C A  21      24.396 -29.886  27.014  1.00  0.00     0.199 C 
ATOM    489  P     A A  22      21.730 -27.816  25.732  1.00  0.00     0.408 P 
ATOM    490  OP2   A A  22      20.494 -28.224  26.447  1.00  0.00    -0.624 OA
ATOM    491  O5'   A A  22      22.060 -28.919  24.631  1.00  0.00    -0.287 OA
ATOM    492  OP1   A A  22      21.796 -26.481  25.086  1.00  0.00    -0.624 OA
ATOM    493  C5'   A A  22      23.210 -28.801  23.795  1.00  0.00     0.216 C 
ATOM    494  C4'   A A  22      23.336 -30.014  22.903  1.00  0.00     0.180 C 
ATOM    495  C3'   A A  22      22.040 -30.499  22.268  1.00  0.00     0.198 C 
ATOM    496  O4'   A A  22      23.794 -31.143  23.700  1.00  0.00    -0.353 OA
ATOM    497  O3'   A A  22      21.750 -29.803  21.059  1.00  0.00    -0.279 OA
ATOM    498  C2'   A A  22      22.328 -31.975  22.037  1.00  0.00     0.199 C 
ATOM    499  P     G A  23      20.221 -29.529  20.643  1.00  0.00     0.408 P 
ATOM    500  OP2   G A  23      19.531 -28.877  21.786  1.00  0.00    -0.624 OA
ATOM    501  OP1   G A  23      20.240 -28.857  19.319  1.00  0.00    -0.624 OA
ATOM    502  C1'   A A  22      23.099 -32.316  23.310  1.00  0.00     0.262 C 
ATOM    503  O2'   A A  22      23.179 -32.162  20.922  1.00  0.00    -0.388 OA
ATOM    504  N9    A A  22      22.243 -32.735  24.420  1.00  0.00    -0.294 N 
ATOM    505  C4    A A  22      21.645 -33.962  24.572  1.00  0.00     0.167 A 
ATOM    506  C8    A A  22      21.868 -31.998  25.516  1.00  0.00     0.214 A 
ATOM    507  N3    A A  22      21.723 -35.017  23.742  1.00  0.00    -0.222 NA
ATOM    508  C5    A A  22      20.938 -33.893  25.759  1.00  0.00     0.149 A 
ATOM    509  C2    A A  22      21.010 -36.038  24.212  1.00  0.00     0.237 A 
ATOM    510  N1    A A  22      20.284 -36.119  25.334  1.00  0.00    -0.222 NA
ATOM    511  C6    A A  22      20.226 -35.042  26.145  1.00  0.00     0.155 A 
ATOM    512  N6    A A  22      19.503 -35.123  27.262  1.00  0.00    -0.382 N 
ATOM    513  H61   A A  22      19.447 -34.328  27.883  1.00  0.00     0.157 HD
ATOM    514  H62   A A  22      19.014 -35.978  27.483  1.00  0.00     0.157 HD
ATOM    515  N7    A A  22      21.089 -32.645  26.347  1.00  0.00    -0.236 NA
ATOM    516 'HO2   A A  22      23.077 -31.387  20.368  1.00  0.00     0.210 HD
ATOM    517  C1'   C A  21      24.733 -30.710  28.256  1.00  0.00     0.264 C 
ATOM    518  O2'   C A  21      25.477 -29.016  26.737  1.00  0.00    -0.388 OA
ATOM    519  N1    C A  21      24.074 -32.027  28.294  1.00  0.00    -0.278 N 
ATOM    520  O4'   C A  21      24.309 -29.965  29.384  1.00  0.00    -0.353 OA
ATOM    521  C6    C A  21      22.995 -32.249  29.104  1.00  0.00     0.102 A 
ATOM    522  C2    C A  21      24.568 -33.053  27.483  1.00  0.00     0.352 A 
ATOM    523  C5    C A  21      22.390 -33.443  29.140  1.00  0.00     0.067 A 
ATOM    524  C4    C A  21      22.916 -34.468  28.302  1.00  0.00     0.128 A 
ATOM    525  N4    C A  21      22.358 -35.678  28.292  1.00  0.00    -0.384 N 
ATOM    526  N3    C A  21      23.968 -34.263  27.509  1.00  0.00    -0.177 NA
ATOM    527  H41   C A  21      21.559 -35.874  28.877  1.00  0.00     0.157 HD
ATOM    528  H42   C A  21      22.739 -36.394  27.691  1.00  0.00     0.157 HD
ATOM    529  O2    C A  21      25.548 -32.826  26.758  1.00  0.00    -0.244 OA
ATOM    530 'HO2   C A  21      25.110 -28.133  26.678  1.00  0.00     0.210 HD
BRANCH 499 531
ATOM    531  O5'   G A  23      19.606 -30.987  20.451  1.00  0.00    -0.287 OA
BRANCH 531 532
ATOM    532  C5'   G A  23      20.036 -31.831  19.385  1.00  0.00     0.216 C 
BRANCH 532 533
ATOM    533  C4'   G A  23      19.633 -33.262  19.655  1.00  0.00     0.180 C 
ATOM    534  C3'   G A  23      18.135 -33.529  19.683  1.00  0.00     0.198 C 
ATOM    535  C2'   G A  23      18.045 -34.786  20.539  1.00  0.00     0.199 C 
ATOM    536  C1'   G A  23      19.141 -34.522  21.572  1.00  0.00     0.262 C 
ATOM    537  N9    G A  23      18.647 -33.912  22.802  1.00  0.00    -0.293 N 
ATOM    538  O4'   G A  23      20.085 -33.644  20.982  1.00  0.00    -0.353 OA
ATOM    539  C4    G A  23      17.788 -34.485  23.708  1.00  0.00     0.187 A 
ATOM    540  C8    G A  23      18.940 -32.660  23.286  1.00  0.00     0.214 A 
ATOM    541  N3    G A  23      17.249 -35.718  23.618  1.00  0.00    -0.044 NA
ATOM    542  C5    G A  23      17.610 -33.538  24.694  1.00  0.00     0.173 A 
ATOM    543  C2    G A  23      16.458 -35.986  24.641  1.00  0.00     0.703 A 
ATOM    544  N2    G A  23      15.840 -37.169  24.707  1.00  0.00    -0.233 N 
ATOM    545  N1    G A  23      16.214 -35.117  25.672  1.00  0.00    -0.153 N 
ATOM    546  H21   G A  23      15.991 -37.841  23.968  1.00  0.00     0.174 HD
ATOM    547  H22   G A  23      15.226 -37.386  25.477  1.00  0.00     0.174 HD
ATOM    548  H1    G A  23      15.592 -35.417  26.406  1.00  0.00     0.187 HD
ATOM    549  C6    G A  23      16.757 -33.843  25.788  1.00  0.00     0.292 A 
ATOM    550  O6    G A  23      16.471 -33.140  26.763  1.00  0.00    -0.265 OA
ATOM    551  N7    G A  23      18.343 -32.392  24.415  1.00  0.00    -0.234 NA
BRANCH 534 552
ATOM    552  O3'   G A  23      17.610 -33.723  18.373  1.00  0.00    -0.279 OA
BRANCH 552 553
ATOM    553  P     A A  24      16.084 -33.322  18.056  1.00  0.00     0.408 P 
ATOM    554  OP1   A A  24      15.796 -33.749  16.662  1.00  0.00    -0.624 OA
ATOM    555  OP2   A A  24      15.878 -31.904  18.445  1.00  0.00    -0.624 OA
BRANCH 553 556
ATOM    556  O5'   A A  24      15.230 -34.238  19.041  1.00  0.00    -0.287 OA
BRANCH 556 557
ATOM    557  C5'   A A  24      15.183 -35.654  18.874  1.00  0.00     0.216 C 
BRANCH 557 558
ATOM    558  C4'   A A  24      14.314 -36.277  19.941  1.00  0.00     0.180 C 
ATOM    559  C3'   A A  24      12.932 -35.659  20.102  1.00  0.00     0.198 C 
ATOM    560  O3'   A A  24      11.993 -36.232  19.196  1.00  0.00    -0.279 OA
ATOM    561  C2'   A A  24      12.601 -35.970  21.556  1.00  0.00     0.199 C 
ATOM    562  P     T A  25      10.753 -35.352  18.669  1.00  0.00     0.408 P 
ATOM    563  OP1   T A  25       9.901 -36.240  17.838  1.00  0.00    -0.624 OA
ATOM    564  O5'   T A  25       9.949 -34.985  19.995  1.00  0.00    -0.287 OA
ATOM    565  OP2   T A  25      11.285 -34.093  18.088  1.00  0.00    -0.624 OA
ATOM    566  C5'   T A  25       9.281 -35.992  20.753  1.00  0.00     0.216 C 
ATOM    567  C4'   T A  25       8.527 -35.366  21.903  1.00  0.00     0.180 C 
ATOM    568  C3'   T A  25       7.723 -34.121  21.556  1.00  0.00     0.198 C 
ATOM    569  O4'   T A  25       9.482 -34.917  22.902  1.00  0.00    -0.353 OA
ATOM    570  O3'   T A  25       6.429 -34.456  21.063  1.00  0.00    -0.279 OA
ATOM    571  C2'   T A  25       7.664 -33.381  22.888  1.00  0.00     0.199 C 
ATOM    572  P     C A  26       5.578 -33.363  20.245  1.00  0.00     0.408 P 
ATOM    573  OP1   C A  26       4.387 -34.053  19.690  1.00  0.00    -0.624 OA
ATOM    574  O5'   C A  26       5.081 -32.345  21.366  1.00  0.00    -0.287 OA
ATOM    575  OP2   C A  26       6.500 -32.639  19.331  1.00  0.00    -0.624 OA
ATOM    576  C5'   C A  26       4.907 -30.959  21.076  1.00  0.00     0.216 C 
ATOM    577  C4'   C A  26       4.742 -30.175  22.356  1.00  0.00     0.180 C 
ATOM    578  C3'   C A  26       4.620 -28.667  22.175  1.00  0.00     0.198 C 
ATOM    579  O4'   C A  26       5.927 -30.366  23.178  1.00  0.00    -0.353 OA
ATOM    580  O3'   C A  26       3.260 -28.273  22.009  1.00  0.00    -0.279 OA
ATOM    581  C2'   C A  26       5.230 -28.123  23.460  1.00  0.00     0.199 C 
ATOM    582  P     A A  27       2.777 -27.622  20.619  1.00  0.00     0.408 P 
ATOM    583  OP1   A A  27       1.357 -28.011  20.423  1.00  0.00    -0.624 OA
ATOM    584  OP2   A A  27       3.775 -27.938  19.565  1.00  0.00    -0.624 OA
ATOM    585  O5'   A A  27       2.824 -26.054  20.895  1.00  0.00    -0.287 OA
ATOM    586  C5'   A A  27       2.187 -25.492  22.042  1.00  0.00     0.216 C 
ATOM    587  C4'   A A  27       2.645 -24.068  22.249  1.00  0.00     0.180 C 
ATOM    588  C3'   A A  27       3.022 -23.305  20.986  1.00  0.00     0.198 C 
ATOM    589  O4'   A A  27       3.865 -24.075  23.043  1.00  0.00    -0.353 OA
ATOM    590  C2'   A A  27       3.995 -22.265  21.523  1.00  0.00     0.199 C 
ATOM    591  O2'   A A  27       3.317 -21.229  22.208  1.00  0.00    -0.388 OA
ATOM    592  C1'   A A  27       4.766 -23.102  22.541  1.00  0.00     0.262 C 
ATOM    593 'HO2   A A  27       2.481 -21.103  21.758  1.00  0.00     0.210 HD
ATOM    594  N9    A A  27       5.924 -23.792  21.974  1.00  0.00    -0.294 N 
ATOM    595  C4    A A  27       7.167 -23.249  21.755  1.00  0.00     0.167 A 
ATOM    596  C8    A A  27       6.004 -25.095  21.548  1.00  0.00     0.214 A 
ATOM    597  N3    A A  27       7.565 -21.993  22.019  1.00  0.00    -0.222 NA
ATOM    598  C5    A A  27       7.930 -24.262  21.203  1.00  0.00     0.149 A 
ATOM    599  C2    A A  27       8.838 -21.822  21.672  1.00  0.00     0.237 A 
ATOM    600  N1    A A  27       9.695 -22.699  21.132  1.00  0.00    -0.222 NA
ATOM    601  C6    A A  27       9.263 -23.953  20.880  1.00  0.00     0.155 A 
ATOM    602  N6    A A  27      10.118 -24.824  20.343  1.00  0.00    -0.382 N 
ATOM    603  H61   A A  27       9.818 -25.768  20.146  1.00  0.00     0.157 HD
ATOM    604  H62   A A  27      11.065 -24.539  20.134  1.00  0.00     0.157 HD
ATOM    605  N7    A A  27       7.183 -25.426  21.078  1.00  0.00    -0.236 NA
ATOM    606  O2'   C A  26       4.318 -28.211  24.539  1.00  0.00    -0.388 OA
ATOM    607  C1'   C A  26       6.363 -29.120  23.691  1.00  0.00     0.264 C 
ATOM    608 'HO2   C A  26       3.444 -28.281  24.153  1.00  0.00     0.210 HD
ATOM    609  N1    C A  26       7.626 -28.761  23.023  1.00  0.00    -0.278 N 
ATOM    610  C6    C A  26       8.146 -29.552  22.036  1.00  0.00     0.102 A 
ATOM    611  C2    C A  26       8.291 -27.596  23.415  1.00  0.00     0.352 A 
ATOM    612  C5    C A  26       9.296 -29.234  21.429  1.00  0.00     0.067 A 
ATOM    613  C4    C A  26       9.952 -28.042  21.850  1.00  0.00     0.128 A 
ATOM    614  N4    C A  26      11.100 -27.675  21.284  1.00  0.00    -0.384 N 
ATOM    615  N3    C A  26       9.453 -27.262  22.810  1.00  0.00    -0.177 NA
ATOM    616  H41   C A  26      11.512 -28.237  20.553  1.00  0.00     0.157 HD
ATOM    617  H42   C A  26      11.563 -26.831  21.591  1.00  0.00     0.157 HD
ATOM    618  O2    C A  26       7.799 -26.894  24.309  1.00  0.00    -0.244 OA
ATOM    619  C1'   T A  25       9.045 -33.693  23.467  1.00  0.00     0.264 C 
ATOM    620  O2'   T A  25       6.680 -33.936  23.740  1.00  0.00    -0.388 OA
ATOM    621  N1    T A  25      10.053 -32.663  23.180  1.00  0.00    -0.280 N 
ATOM    622  C6    T A  25      10.872 -32.751  22.076  1.00  0.00     0.104 A 
ATOM    623  C2    T A  25      10.155 -31.600  24.058  1.00  0.00     0.331 A 
ATOM    624  C5    T A  25      11.798 -31.829  21.797  1.00  0.00     0.092 A 
ATOM    625  C4    T A  25      11.963 -30.700  22.658  1.00  0.00     0.250 A 
ATOM    626  N3    T A  25      11.114 -30.675  23.739  1.00  0.00    -0.275 N 
ATOM    627  O4    T A  25      12.767 -29.781  22.500  1.00  0.00    -0.268 OA
ATOM    628  H3    T A  25      11.212 -29.897  24.376  1.00  0.00     0.173 HD
ATOM    629  O2    T A  25       9.449 -31.485  25.043  1.00  0.00    -0.246 OA
ATOM    630 'HO2   T A  25       5.908 -34.105  23.200  1.00  0.00     0.210 HD
ATOM    631  C1'   A A  24      13.969 -35.792  22.213  1.00  0.00     0.262 C 
ATOM    632  O4'   A A  24      14.951 -36.090  21.236  1.00  0.00    -0.353 OA
BRANCH 588 633
ATOM    633  O3'   A A  27       1.884 -22.721  20.358  1.00  0.00    -0.279 OA
BRANCH 633 634
ATOM    634  P     G A  28       1.897 -22.459  18.771  1.00  0.00     0.408 P 
ATOM    635  OP2   G A  28       2.484 -23.646  18.097  1.00  0.00    -0.624 OA
ATOM    636  OP1   G A  28       0.537 -21.999  18.390  1.00  0.00    -0.624 OA
BRANCH 634 637
ATOM    637  O5'   G A  28       2.899 -21.233  18.591  1.00  0.00    -0.287 OA
BRANCH 637 638
ATOM    638  C5'   G A  28       2.583 -19.946  19.118  1.00  0.00     0.216 C 
BRANCH 638 639
ATOM    639  C4'   G A  28       3.841 -19.125  19.293  1.00  0.00     0.180 C 
ATOM    640  C3'   G A  28       4.458 -18.577  18.016  1.00  0.00     0.198 C 
ATOM    641  C2'   G A  28       5.897 -18.303  18.444  1.00  0.00     0.199 C 
ATOM    642  O2'   G A  28       5.989 -17.081  19.151  1.00  0.00    -0.388 OA
ATOM    643  C1'   G A  28       6.153 -19.454  19.421  1.00  0.00     0.262 C 
ATOM    644 'HO2   G A  28       5.169 -16.612  18.996  1.00  0.00     0.210 HD
ATOM    645  O4'   G A  28       4.896 -19.955  19.841  1.00  0.00    -0.353 OA
ATOM    646  N9    G A  28       6.921 -20.552  18.841  1.00  0.00    -0.293 N 
ATOM    647  C8    G A  28       6.490 -21.835  18.605  1.00  0.00     0.214 A 
ATOM    648  C4    G A  28       8.228 -20.500  18.421  1.00  0.00     0.187 A 
ATOM    649  N7    G A  28       7.408 -22.597  18.077  1.00  0.00    -0.234 NA
ATOM    650  C5    G A  28       8.514 -21.765  17.954  1.00  0.00     0.173 A 
ATOM    651  C6    G A  28       9.813 -22.028  17.444  1.00  0.00     0.292 A 
ATOM    652  O6    G A  28      10.263 -23.084  16.983  1.00  0.00    -0.265 OA
ATOM    653  N1    G A  28      10.624 -20.901  17.505  1.00  0.00    -0.153 N 
ATOM    654  C2    G A  28      10.238 -19.679  17.993  1.00  0.00     0.703 A 
ATOM    655  H1    G A  28      11.568 -20.992  17.164  1.00  0.00     0.187 HD
ATOM    656  N3    G A  28       9.035 -19.419  18.470  1.00  0.00    -0.044 NA
ATOM    657  N2    G A  28      11.163 -18.716  17.965  1.00  0.00    -0.233 N 
ATOM    658  H21   G A  28      10.928 -17.798  18.312  1.00  0.00     0.174 HD
ATOM    659  H22   G A  28      12.087 -18.903  17.602  1.00  0.00     0.174 HD
BRANCH 640 660
ATOM    660  O3'   G A  28       3.787 -17.400  17.573  1.00  0.00    -0.279 OA
BRANCH 660 661
ATOM    661  P     A A  29       3.843 -16.984  16.019  1.00  0.00     0.408 P 
ATOM    662  OP2   A A  29       3.412 -18.149  15.205  1.00  0.00    -0.624 OA
ATOM    663  OP1   A A  29       3.124 -15.691  15.887  1.00  0.00    -0.624 OA
BRANCH 661 664
ATOM    664  O5'   A A  29       5.390 -16.721  15.744  1.00  0.00    -0.287 OA
BRANCH 664 665
ATOM    665  C5'   A A  29       6.091 -15.682  16.427  1.00  0.00     0.216 C 
BRANCH 665 666
ATOM    666  C4'   A A  29       7.457 -15.482  15.813  1.00  0.00     0.180 C 
ATOM    667  O4'   A A  29       8.353 -16.517  16.293  1.00  0.00    -0.353 OA
ATOM    668  C1'   A A  29       9.300 -16.829  15.286  1.00  0.00     0.262 C 
ATOM    669  N9    A A  29       9.229 -18.266  15.017  1.00  0.00    -0.294 N 
ATOM    670  C2'   A A  29       8.994 -15.957  14.066  1.00  0.00     0.199 C 
ATOM    671  C8    A A  29       8.170 -19.114  15.234  1.00  0.00     0.214 A 
ATOM    672  C4    A A  29      10.231 -19.044  14.489  1.00  0.00     0.167 A 
ATOM    673  N7    A A  29       8.412 -20.357  14.893  1.00  0.00    -0.236 NA
ATOM    674  C5    A A  29       9.716 -20.326  14.419  1.00  0.00     0.149 A 
ATOM    675  C6    A A  29      10.562 -21.325  13.904  1.00  0.00     0.155 A 
ATOM    676  N6    A A  29      10.207 -22.605  13.778  1.00  0.00    -0.382 N 
ATOM    677  N1    A A  29      11.804 -20.960  13.518  1.00  0.00    -0.222 NA
ATOM    678  H62   A A  29      10.861 -23.277  13.400  1.00  0.00     0.157 HD
ATOM    679  H61   A A  29       9.283 -22.900  14.061  1.00  0.00     0.157 HD
ATOM    680  C2    A A  29      12.163 -19.675  13.647  1.00  0.00     0.237 A 
ATOM    681  N3    A A  29      11.460 -18.647  14.116  1.00  0.00    -0.222 NA
ATOM    682  O2'   A A  29       9.804 -14.798  14.127  1.00  0.00    -0.388 OA
ATOM    683  C3'   A A  29       7.527 -15.612  14.299  1.00  0.00     0.198 C 
ATOM    684 'HO2   A A  29       9.237 -14.058  13.911  1.00  0.00     0.210 HD
ATOM    685  O3'   A A  29       7.142 -14.401  13.654  1.00  0.00    -0.279 OA
ATOM    686  P     A A  30       6.511 -14.446  12.174  1.00  0.00     0.408 P 
ATOM    687  O5'   A A  30       7.768 -14.695  11.226  1.00  0.00    -0.287 OA
ATOM    688  OP2   A A  30       5.613 -15.625  12.076  1.00  0.00    -0.624 OA
ATOM    689  OP1   A A  30       5.974 -13.090  11.898  1.00  0.00    -0.624 OA
ATOM    690  C5'   A A  30       8.835 -13.751  11.158  1.00  0.00     0.216 C 
ATOM    691  C4'   A A  30       9.969 -14.302  10.325  1.00  0.00     0.180 C 
ATOM    692  C3'   A A  30       9.579 -14.883   8.975  1.00  0.00     0.198 C 
ATOM    693  O4'   A A  30      10.570 -15.424  11.018  1.00  0.00    -0.353 OA
ATOM    694  O3'   A A  30       9.433 -13.862   7.991  1.00  0.00    -0.279 OA
ATOM    695  C2'   A A  30      10.741 -15.825   8.671  1.00  0.00     0.199 C 
ATOM    696  P     G A  31       8.655 -14.176   6.618  1.00  0.00     0.408 P 
ATOM    697  O5'   G A  31       9.696 -15.049   5.782  1.00  0.00    -0.287 OA
ATOM    698  OP1   G A  31       8.477 -12.879   5.918  1.00  0.00    -0.624 OA
ATOM    699  OP2   G A  31       7.465 -15.012   6.927  1.00  0.00    -0.624 OA
ATOM    700  C5'   G A  31       9.513 -16.455   5.605  1.00  0.00     0.216 C 
ATOM    701  C4'   G A  31       8.866 -16.736   4.267  1.00  0.00     0.180 C 
ATOM    702  O4'   G A  31       8.158 -15.541   3.831  1.00  0.00    -0.353 OA
ATOM    703  C3'   G A  31       9.833 -17.071   3.135  1.00  0.00     0.198 C 
ATOM    704  C1'   G A  31       8.462 -15.270   2.477  1.00  0.00     0.262 C 
ATOM    705  C2'   G A  31       9.117 -16.525   1.904  1.00  0.00     0.199 C 
ATOM    706  N9    G A  31       9.302 -14.076   2.427  1.00  0.00    -0.293 N 
ATOM    707  O2'   G A  31       8.102 -17.408   1.466  1.00  0.00    -0.388 OA
ATOM    708 'HO2   G A  31       8.191 -18.210   1.983  1.00  0.00     0.210 HD
ATOM    709  C4    G A  31      10.587 -13.992   1.942  1.00  0.00     0.187 A 
ATOM    710  C8    G A  31       8.968 -12.814   2.853  1.00  0.00     0.214 A 
ATOM    711  N3    G A  31      11.306 -15.008   1.423  1.00  0.00    -0.044 NA
ATOM    712  C5    G A  31      10.953 -12.673   2.104  1.00  0.00     0.173 A 
ATOM    713  C2    G A  31      12.507 -14.617   1.040  1.00  0.00     0.703 A 
ATOM    714  N2    G A  31      13.351 -15.504   0.504  1.00  0.00    -0.233 N 
ATOM    715  N1    G A  31      12.970 -13.332   1.155  1.00  0.00    -0.153 N 
ATOM    716  H22   G A  31      14.272 -15.224   0.203  1.00  0.00     0.174 HD
ATOM    717  H21   G A  31      13.049 -16.462   0.402  1.00  0.00     0.174 HD
ATOM    718  C6    G A  31      12.250 -12.269   1.687  1.00  0.00     0.292 A 
ATOM    719  H1    G A  31      13.903 -13.135   0.829  1.00  0.00     0.187 HD
ATOM    720  O6    G A  31      12.766 -11.147   1.747  1.00  0.00    -0.265 OA
ATOM    721  N7    G A  31       9.923 -11.942   2.680  1.00  0.00    -0.234 NA
ATOM    722  O2'   A A  30      11.845 -15.120   8.133  1.00  0.00    -0.388 OA
ATOM    723  C1'   A A  30      11.119 -16.321  10.070  1.00  0.00     0.262 C 
ATOM    724 'HO2   A A  30      11.488 -14.388   7.630  1.00  0.00     0.210 HD
ATOM    725  N9    A A  30      10.623 -17.665  10.362  1.00  0.00    -0.294 N 
ATOM    726  C8    A A  30       9.381 -18.028  10.823  1.00  0.00     0.214 A 
ATOM    727  C4    A A  30      11.325 -18.837  10.218  1.00  0.00     0.167 A 
ATOM    728  N7    A A  30       9.232 -19.321  10.978  1.00  0.00    -0.236 NA
ATOM    729  C5    A A  30      10.459 -19.846  10.596  1.00  0.00     0.149 A 
ATOM    730  C6    A A  30      10.948 -21.164  10.530  1.00  0.00     0.155 A 
ATOM    731  N6    A A  30      10.231 -22.239  10.857  1.00  0.00    -0.382 N 
ATOM    732  N1    A A  30      12.219 -21.342  10.108  1.00  0.00    -0.222 NA
ATOM    733  H61   A A  30       9.278 -22.130  11.174  1.00  0.00     0.157 HD
ATOM    734  H62   A A  30      10.634 -23.163  10.781  1.00  0.00     0.157 HD
ATOM    735  C2    A A  30      12.941 -20.263   9.777  1.00  0.00     0.237 A 
ATOM    736  N3    A A  30      12.593 -18.979   9.794  1.00  0.00    -0.222 NA
BRANCH 703 737
ATOM    737  O3'   G A  31      10.065 -18.476   3.052  1.00  0.00    -0.279 OA
BRANCH 737 738
ATOM    738  P     G A  32      11.170 -19.050   2.032  1.00  0.00     0.408 P 
ATOM    739  OP2   G A  32      10.584 -20.229   1.346  1.00  0.00    -0.624 OA
ATOM    740  OP1   G A  32      11.694 -17.918   1.223  1.00  0.00    -0.624 OA
BRANCH 738 741
ATOM    741  O5'   G A  32      12.340 -19.570   2.983  1.00  0.00    -0.287 OA
BRANCH 741 742
ATOM    742  C5'   G A  32      13.422 -18.718   3.357  1.00  0.00     0.216 C 
BRANCH 742 743
ATOM    743  C4'   G A  32      14.687 -19.525   3.530  1.00  0.00     0.180 C 
ATOM    744  C3'   G A  32      14.862 -20.681   2.552  1.00  0.00     0.198 C 
ATOM    745  C2'   G A  32      15.680 -21.685   3.355  1.00  0.00     0.199 C 
ATOM    746  O3'   G A  32      15.534 -20.264   1.367  1.00  0.00    -0.279 OA
ATOM    747  O2'   G A  32      17.050 -21.332   3.368  1.00  0.00    -0.388 OA
ATOM    748  C1'   G A  32      15.108 -21.482   4.757  1.00  0.00     0.262 C 
ATOM    749 'HO2   G A  32      17.211 -20.831   2.567  1.00  0.00     0.210 HD
ATOM    750  N9    G A  32      13.981 -22.356   5.068  1.00  0.00    -0.293 N 
ATOM    751  O4'   G A  32      14.667 -20.141   4.847  1.00  0.00    -0.353 OA
ATOM    752  C4    G A  32      14.005 -23.728   5.129  1.00  0.00     0.187 A 
ATOM    753  C8    G A  32      12.692 -21.979   5.357  1.00  0.00     0.214 A 
ATOM    754  C5    G A  32      12.719 -24.103   5.456  1.00  0.00     0.173 A 
ATOM    755  N3    G A  32      15.081 -24.512   4.910  1.00  0.00    -0.044 NA
ATOM    756  N7    G A  32      11.902 -22.989   5.598  1.00  0.00    -0.234 NA
ATOM    757  C6    G A  32      12.425 -25.484   5.595  1.00  0.00     0.292 A 
ATOM    758  N1    G A  32      13.548 -26.270   5.366  1.00  0.00    -0.153 N 
ATOM    759  O6    G A  32      11.348 -26.019   5.878  1.00  0.00    -0.265 OA
ATOM    760  H1    G A  32      13.436 -27.269   5.445  1.00  0.00     0.187 HD
ATOM    761  C2    G A  32      14.792 -25.793   5.044  1.00  0.00     0.703 A 
ATOM    762  N2    G A  32      15.746 -26.709   4.862  1.00  0.00    -0.233 N 
ATOM    763  H21   G A  32      16.679 -26.408   4.622  1.00  0.00     0.174 HD
ATOM    764  H22   G A  32      15.536 -27.693   4.964  1.00  0.00     0.174 HD
ATOM    765  P     C A  33      15.157 -20.933  -0.047  1.00  0.00     0.408 P 
ATOM    766  O5'   C A  33      15.534 -22.471   0.138  1.00  0.00    -0.287 OA
ATOM    767  OP2   C A  33      13.687 -20.833  -0.229  1.00  0.00    -0.624 OA
ATOM    768  OP1   C A  33      16.064 -20.348  -1.067  1.00  0.00    -0.624 OA
ATOM    769  C5'   C A  33      16.885 -22.915   0.017  1.00  0.00     0.216 C 
ATOM    770  C4'   C A  33      16.966 -24.411   0.219  1.00  0.00     0.180 C 
ATOM    771  C3'   C A  33      16.203 -25.258  -0.790  1.00  0.00     0.198 C 
ATOM    772  O4'   C A  33      16.361 -24.752   1.493  1.00  0.00    -0.353 OA
ATOM    773  O3'   C A  33      16.964 -25.464  -1.978  1.00  0.00    -0.279 OA
ATOM    774  C2'   C A  33      15.963 -26.552  -0.019  1.00  0.00     0.199 C 
ATOM    775  P     T A  34      16.235 -25.971  -3.321  1.00  0.00     0.408 P 
ATOM    776  OP2   T A  34      15.227 -24.957  -3.725  1.00  0.00    -0.624 OA
ATOM    777  OP1   T A  34      17.303 -26.364  -4.276  1.00  0.00    -0.624 OA
ATOM    778  O5'   T A  34      15.460 -27.289  -2.871  1.00  0.00    -0.287 OA
ATOM    779  C5'   T A  34      16.167 -28.495  -2.580  1.00  0.00     0.216 C 
ATOM    780  C4'   T A  34      15.203 -29.655  -2.479  1.00  0.00     0.180 C 
ATOM    781  C3'   T A  34      14.141 -29.727  -3.565  1.00  0.00     0.198 C 
ATOM    782  O4'   T A  34      14.440 -29.537  -1.250  1.00  0.00    -0.353 OA
ATOM    783  C2'   T A  34      13.042 -30.546  -2.896  1.00  0.00     0.199 C 
ATOM    784  O3'   T A  34      14.645 -30.350  -4.744  1.00  0.00    -0.279 OA
ATOM    785  O2'   T A  34      13.348 -31.927  -2.933  1.00  0.00    -0.388 OA
ATOM    786  C1'   T A  34      13.137 -30.057  -1.448  1.00  0.00     0.264 C 
ATOM    787 'HO2   T A  34      14.049 -32.026  -3.578  1.00  0.00     0.210 HD
ATOM    788  N1    T A  34      12.165 -29.006  -1.113  1.00  0.00    -0.280 N 
ATOM    789  C2    T A  34      11.085 -29.354  -0.321  1.00  0.00     0.331 A 
ATOM    790  C6    T A  34      12.321 -27.717  -1.573  1.00  0.00     0.104 A 
ATOM    791  N3    T A  34      10.212 -28.332  -0.050  1.00  0.00    -0.275 N 
ATOM    792  O2    T A  34      10.914 -30.480   0.110  1.00  0.00    -0.246 OA
ATOM    793  H3    T A  34       9.412 -28.565   0.519  1.00  0.00     0.173 HD
ATOM    794  C4    T A  34      10.305 -27.027  -0.476  1.00  0.00     0.250 A 
ATOM    795  C5    T A  34      11.448 -26.746  -1.287  1.00  0.00     0.092 A 
ATOM    796  O4    T A  34       9.436 -26.220  -0.144  1.00  0.00    -0.268 OA
ATOM    797  P     G A  35      14.629 -29.552  -6.140  1.00  0.00     0.408 P 
ATOM    798  OP1   G A  35      15.400 -30.365  -7.116  1.00  0.00    -0.624 OA
ATOM    799  O5'   G A  35      13.096 -29.570  -6.577  1.00  0.00    -0.287 OA
ATOM    800  OP2   G A  35      15.027 -28.142  -5.886  1.00  0.00    -0.624 OA
ATOM    801  C5'   G A  35      12.309 -30.754  -6.451  1.00  0.00     0.216 C 
ATOM    802  C4'   G A  35      10.896 -30.496  -6.921  1.00  0.00     0.180 C 
ATOM    803  C3'   G A  35      10.756 -29.475  -8.043  1.00  0.00     0.198 C 
ATOM    804  O4'   G A  35      10.127 -29.942  -5.817  1.00  0.00    -0.353 OA
ATOM    805  O3'   G A  35      10.896 -30.080  -9.324  1.00  0.00    -0.279 OA
ATOM    806  C2'   G A  35       9.359 -28.918  -7.806  1.00  0.00     0.199 C 
ATOM    807  P     C A  36      11.952 -29.478 -10.376  1.00  0.00     0.408 P 
ATOM    808  OP1   C A  36      11.786 -30.229 -11.646  1.00  0.00    -0.624 OA
ATOM    809  O5'   C A  36      11.446 -27.986 -10.612  1.00  0.00    -0.287 OA
ATOM    810  OP2   C A  36      13.286 -29.422  -9.726  1.00  0.00    -0.624 OA
ATOM    811  C5'   C A  36      10.121 -27.723 -11.072  1.00  0.00     0.216 C 
ATOM    812  C4'   C A  36       9.976 -26.267 -11.441  1.00  0.00     0.180 C 
ATOM    813  C3'   C A  36      11.206 -25.621 -12.061  1.00  0.00     0.198 C 
ATOM    814  O4'   C A  36       9.738 -25.493 -10.234  1.00  0.00    -0.353 OA
ATOM    815  O3'   C A  36      11.280 -25.868 -13.463  1.00  0.00    -0.279 OA
ATOM    816  C2'   C A  36      10.996 -24.148 -11.738  1.00  0.00     0.199 C 
ATOM    817  P     G A  37      12.707 -25.846 -14.205  1.00  0.00     0.408 P 
ATOM    818  O5'   G A  37      13.068 -24.296 -14.300  1.00  0.00    -0.287 OA
ATOM    819  OP2   G A  37      13.709 -26.503 -13.327  1.00  0.00    -0.624 OA
ATOM    820  OP1   G A  37      12.494 -26.356 -15.583  1.00  0.00    -0.624 OA
ATOM    821  C5'   G A  37      12.249 -23.392 -15.043  1.00  0.00     0.216 C 
ATOM    822  C4'   G A  37      13.027 -22.143 -15.385  1.00  0.00     0.180 C 
ATOM    823  C3'   G A  37      14.526 -22.339 -15.576  1.00  0.00     0.198 C 
ATOM    824  O4'   G A  37      12.906 -21.203 -14.281  1.00  0.00    -0.353 OA
ATOM    825  O3'   G A  37      14.844 -22.665 -16.926  1.00  0.00    -0.279 OA
ATOM    826  C2'   G A  37      15.092 -20.990 -15.153  1.00  0.00     0.199 C 
ATOM    827  P     T A  38      16.195 -23.474 -17.256  1.00  0.00     0.408 P 
ATOM    828  OP2   T A  38      16.266 -24.657 -16.361  1.00  0.00    -0.624 OA
ATOM    829  OP1   T A  38      16.248 -23.663 -18.728  1.00  0.00    -0.624 OA
ATOM    830  O5'   T A  38      17.358 -22.466 -16.842  1.00  0.00    -0.287 OA
ATOM    831  C5'   T A  38      17.542 -21.233 -17.536  1.00  0.00     0.216 C 
ATOM    832  C4'   T A  38      18.675 -20.449 -16.916  1.00  0.00     0.180 C 
ATOM    833  C3'   T A  38      19.967 -21.222 -16.698  1.00  0.00     0.198 C 
ATOM    834  O4'   T A  38      18.285 -20.024 -15.582  1.00  0.00    -0.353 OA
ATOM    835  O3'   T A  38      20.765 -21.258 -17.878  1.00  0.00    -0.279 OA
ATOM    836  C2'   T A  38      20.625 -20.435 -15.571  1.00  0.00     0.199 C 
ATOM    837  P     G A  39      21.811 -22.460 -18.099  1.00  0.00     0.408 P 
ATOM    838  O5'   G A  39      22.834 -22.307 -16.887  1.00  0.00    -0.287 OA
ATOM    839  OP2   G A  39      21.087 -23.747 -17.942  1.00  0.00    -0.624 OA
ATOM    840  OP1   G A  39      22.542 -22.179 -19.361  1.00  0.00    -0.624 OA
ATOM    841  C5'   G A  39      23.631 -21.132 -16.744  1.00  0.00     0.216 C 
ATOM    842  C4'   G A  39      24.447 -21.204 -15.475  1.00  0.00     0.180 C 
ATOM    843  O4'   G A  39      23.574 -21.062 -14.325  1.00  0.00    -0.353 OA
ATOM    844  C3'   G A  39      25.153 -22.525 -15.212  1.00  0.00     0.198 C 
ATOM    845  C1'   G A  39      24.137 -21.753 -13.222  1.00  0.00     0.262 C 
ATOM    846  N9    G A  39      23.133 -22.668 -12.685  1.00  0.00    -0.293 N 
ATOM    847  C2'   G A  39      25.404 -22.461 -13.710  1.00  0.00     0.199 C 
ATOM    848  C4    G A  39      23.118 -23.211 -11.423  1.00  0.00     0.187 A 
ATOM    849  C8    G A  39      22.026 -23.161 -13.331  1.00  0.00     0.214 A 
ATOM    850  N3    G A  39      24.030 -22.990 -10.453  1.00  0.00    -0.044 NA
ATOM    851  C5    G A  39      21.994 -24.009 -11.381  1.00  0.00     0.173 A 
ATOM    852  C2    G A  39      23.747 -23.657  -9.349  1.00  0.00     0.703 A 
ATOM    853  N1    G A  39      22.657 -24.476  -9.204  1.00  0.00    -0.153 N 
ATOM    854  N2    G A  39      24.550 -23.550  -8.288  1.00  0.00    -0.233 N 
ATOM    855  C6    G A  39      21.704 -24.719 -10.186  1.00  0.00     0.292 A 
ATOM    856  H1    G A  39      22.537 -24.939  -8.316  1.00  0.00     0.187 HD
ATOM    857  O6    G A  39      20.758 -25.479  -9.949  1.00  0.00    -0.265 OA
ATOM    858  H22   G A  39      24.349 -24.062  -7.439  1.00  0.00     0.174 HD
ATOM    859  H21   G A  39      25.366 -22.959  -8.343  1.00  0.00     0.174 HD
ATOM    860  N7    G A  39      21.314 -23.967 -12.591  1.00  0.00    -0.234 NA
ATOM    861  C1'   T A  38      19.410 -20.069 -14.719  1.00  0.00     0.264 C 
ATOM    862  O2'   T A  38      21.211 -19.243 -16.060  1.00  0.00    -0.388 OA
ATOM    863  N1    T A  38      19.130 -21.027 -13.640  1.00  0.00    -0.280 N 
ATOM    864  C6    T A  38      18.284 -22.097 -13.832  1.00  0.00     0.104 A 
ATOM    865  C2    T A  38      19.747 -20.819 -12.419  1.00  0.00     0.331 A 
ATOM    866  C5    T A  38      18.013 -22.977 -12.863  1.00  0.00     0.092 A 
ATOM    867  C4    T A  38      18.611 -22.829 -11.574  1.00  0.00     0.250 A 
ATOM    868  N3    T A  38      19.448 -21.744 -11.453  1.00  0.00    -0.275 N 
ATOM    869  O4    T A  38      18.427 -23.560 -10.601  1.00  0.00    -0.268 OA
ATOM    870  H3    T A  38      19.902 -21.623 -10.560  1.00  0.00     0.173 HD
ATOM    871  O2    T A  38      20.499 -19.885 -12.207  1.00  0.00    -0.246 OA
ATOM    872 'HO2   T A  38      21.205 -19.309 -17.016  1.00  0.00     0.210 HD
ATOM    873  O2'   G A  37      14.916 -20.019 -16.169  1.00  0.00    -0.388 OA
ATOM    874  C1'   G A  37      14.174 -20.649 -13.983  1.00  0.00     0.262 C 
ATOM    875 'HO2   G A  37      14.729 -20.497 -16.977  1.00  0.00     0.210 HD
ATOM    876  N9    G A  37      14.621 -21.190 -12.703  1.00  0.00    -0.293 N 
ATOM    877  C8    G A  37      14.258 -22.388 -12.140  1.00  0.00     0.214 A 
ATOM    878  C4    G A  37      15.488 -20.595 -11.818  1.00  0.00     0.187 A 
ATOM    879  N7    G A  37      14.809 -22.600 -10.976  1.00  0.00    -0.234 NA
ATOM    880  C5    G A  37      15.591 -21.473 -10.759  1.00  0.00     0.173 A 
ATOM    881  C6    G A  37      16.428 -21.129  -9.666  1.00  0.00     0.292 A 
ATOM    882  O6    G A  37      16.654 -21.772  -8.634  1.00  0.00    -0.265 OA
ATOM    883  N1    G A  37      17.035 -19.893  -9.856  1.00  0.00    -0.153 N 
ATOM    884  C2    G A  37      16.864 -19.093 -10.956  1.00  0.00     0.703 A 
ATOM    885  H1    G A  37      17.647 -19.562  -9.127  1.00  0.00     0.187 HD
ATOM    886  N3    G A  37      16.091 -19.400 -11.982  1.00  0.00    -0.044 NA
ATOM    887  N2    G A  37      17.535 -17.939 -10.955  1.00  0.00    -0.233 N 
ATOM    888  H21   G A  37      17.444 -17.312 -11.740  1.00  0.00     0.174 HD
ATOM    889  H22   G A  37      18.129 -17.694 -10.174  1.00  0.00     0.174 HD
ATOM    890  O2'   C A  36      10.049 -23.564 -12.612  1.00  0.00    -0.388 OA
ATOM    891  C1'   C A  36      10.385 -24.236 -10.339  1.00  0.00     0.264 C 
ATOM    892 'HO2   C A  36      10.080 -24.071 -13.424  1.00  0.00     0.210 HD
ATOM    893  N1    C A  36      11.378 -24.126  -9.256  1.00  0.00    -0.278 N 
ATOM    894  C6    C A  36      11.735 -25.216  -8.510  1.00  0.00     0.102 A 
ATOM    895  C2    C A  36      11.956 -22.881  -9.001  1.00  0.00     0.352 A 
ATOM    896  C5    C A  36      12.641 -25.115  -7.527  1.00  0.00     0.067 A 
ATOM    897  C4    C A  36      13.215 -23.831  -7.295  1.00  0.00     0.128 A 
ATOM    898  N4    C A  36      14.123 -23.665  -6.333  1.00  0.00    -0.384 N 
ATOM    899  N3    C A  36      12.874 -22.764  -8.017  1.00  0.00    -0.177 NA
ATOM    900  H41   C A  36      14.411 -24.446  -5.762  1.00  0.00     0.157 HD
ATOM    901  H42   C A  36      14.520 -22.749  -6.176  1.00  0.00     0.157 HD
ATOM    902  O2    C A  36      11.611 -21.910  -9.686  1.00  0.00    -0.244 OA
ATOM    903  C1'   G A  35       9.332 -28.865  -6.280  1.00  0.00     0.262 C 
ATOM    904  O2'   G A  35       8.365 -29.819  -8.256  1.00  0.00    -0.388 OA
ATOM    905  N9    G A  35       9.872 -27.624  -5.733  1.00  0.00    -0.293 N 
ATOM    906  C4    G A  35       9.586 -26.350  -6.161  1.00  0.00     0.187 A 
ATOM    907  C8    G A  35      10.767 -27.492  -4.699  1.00  0.00     0.214 A 
ATOM    908  C5    G A  35      10.335 -25.517  -5.357  1.00  0.00     0.173 A 
ATOM    909  N3    G A  35       8.746 -26.021  -7.164  1.00  0.00    -0.044 NA
ATOM    910  N7    G A  35      11.074 -26.251  -4.439  1.00  0.00    -0.234 NA
ATOM    911  C6    G A  35      10.252 -24.114  -5.563  1.00  0.00     0.292 A 
ATOM    912  N1    G A  35       9.380 -23.801  -6.599  1.00  0.00    -0.153 N 
ATOM    913  O6    G A  35      10.837 -23.209  -4.959  1.00  0.00    -0.265 OA
ATOM    914  C2    G A  35       8.679 -24.715  -7.343  1.00  0.00     0.703 A 
ATOM    915  H1    G A  35       9.256 -22.825  -6.816  1.00  0.00     0.187 HD
ATOM    916  N2    G A  35       7.892 -24.217  -8.299  1.00  0.00    -0.233 N 
ATOM    917  H21   G A  35       7.358 -24.854  -8.873  1.00  0.00     0.174 HD
ATOM    918  H22   G A  35       7.830 -23.223  -8.452  1.00  0.00     0.174 HD
ATOM    919 'HO2   G A  35       8.772 -30.347  -8.943  1.00  0.00     0.210 HD
ATOM    920  C1'   C A  33      15.753 -26.029   1.404  1.00  0.00     0.264 C 
ATOM    921  O2'   C A  33      17.116 -27.373  -0.029  1.00  0.00    -0.388 OA
ATOM    922  N1    C A  33      14.336 -25.899   1.782  1.00  0.00    -0.278 N 
ATOM    923  C2    C A  33      13.621 -27.051   2.120  1.00  0.00     0.352 A 
ATOM    924  C6    C A  33      13.723 -24.677   1.802  1.00  0.00     0.102 A 
ATOM    925  O2    C A  33      14.199 -28.147   2.098  1.00  0.00    -0.244 OA
ATOM    926  N3    C A  33      12.319 -26.945   2.465  1.00  0.00    -0.177 NA
ATOM    927  C4    C A  33      11.730 -25.749   2.482  1.00  0.00     0.128 A 
ATOM    928  C5    C A  33      12.434 -24.556   2.145  1.00  0.00     0.067 A 
ATOM    929 'HO2   C A  33      17.766 -26.932  -0.576  1.00  0.00     0.210 HD
BRANCH 847 930
ATOM    930  O2'   G A  39      26.521 -21.643 -13.417  1.00  0.00    -0.388 OA
ATOM    931 'HO2   G A  39      27.022 -21.567 -14.229  1.00  0.00     0.210 HD
ENDBRANCH 847 930
BRANCH 844 932
ATOM    932  O3'   G A  39      26.360 -22.640 -15.962  1.00  0.00    -0.279 OA
BRANCH 932 933
ATOM    933  P     G A  40      26.880 -24.091 -16.420  1.00  0.00     0.408 P 
ATOM    934  OP2   G A  40      25.803 -24.750 -17.201  1.00  0.00    -0.624 OA
ATOM    935  OP1   G A  40      28.221 -23.906 -17.032  1.00  0.00    -0.624 OA
BRANCH 933 936
ATOM    936  O5'   G A  40      27.064 -24.886 -15.051  1.00  0.00    -0.287 OA
BRANCH 936 937
ATOM    937  C5'   G A  40      28.067 -24.507 -14.110  1.00  0.00     0.216 C 
BRANCH 937 938
ATOM    938  C4'   G A  40      28.045 -25.437 -12.919  1.00  0.00     0.180 C 
ATOM    939  C3'   G A  40      27.876 -26.915 -13.242  1.00  0.00     0.198 C 
ATOM    940  C2'   G A  40      27.266 -27.457 -11.956  1.00  0.00     0.199 C 
ATOM    941  C1'   G A  40      26.327 -26.312 -11.577  1.00  0.00     0.262 C 
ATOM    942  O2'   G A  40      28.250 -27.595 -10.946  1.00  0.00    -0.388 OA
ATOM    943  N9    G A  40      24.982 -26.454 -12.126  1.00  0.00    -0.293 N 
ATOM    944  O4'   G A  40      26.895 -25.117 -12.086  1.00  0.00    -0.353 OA
ATOM    945  C8    G A  40      24.514 -25.943 -13.312  1.00  0.00     0.214 A 
ATOM    946  C4    G A  40      23.931 -27.132 -11.557  1.00  0.00     0.187 A 
ATOM    947  N7    G A  40      23.264 -26.238 -13.543  1.00  0.00    -0.234 NA
ATOM    948  C5    G A  40      22.882 -26.991 -12.441  1.00  0.00     0.173 A 
ATOM    949  C6    G A  40      21.636 -27.594 -12.126  1.00  0.00     0.292 A 
ATOM    950  N1    G A  40      21.687 -28.265 -10.910  1.00  0.00    -0.153 N 
ATOM    951  O6    G A  40      20.586 -27.584 -12.777  1.00  0.00    -0.265 OA
ATOM    952  C2    G A  40      22.791 -28.348 -10.101  1.00  0.00     0.703 A 
ATOM    953  H1    G A  40      20.843 -28.724 -10.606  1.00  0.00     0.187 HD
ATOM    954  N2    G A  40      22.642 -29.046  -8.973  1.00  0.00    -0.233 N 
ATOM    955  N3    G A  40      23.955 -27.790 -10.378  1.00  0.00    -0.044 NA
ATOM    956  H21   G A  40      23.427 -29.138  -8.347  1.00  0.00     0.174 HD
ATOM    957  H22   G A  40      21.759 -29.480  -8.746  1.00  0.00     0.174 HD
ATOM    958 'HO2   G A  40      29.076 -27.774 -11.396  1.00  0.00     0.210 HD
BRANCH 939 959
ATOM    959  O3'   G A  40      29.120 -27.533 -13.559  1.00  0.00    -0.279 OA
BRANCH 959 960
ATOM    960  P     A A  41      29.154 -28.777 -14.579  1.00  0.00     0.408 P 
ATOM    961  OP2   A A  41      28.509 -28.360 -15.850  1.00  0.00    -0.624 OA
ATOM    962  OP1   A A  41      30.548 -29.290 -14.598  1.00  0.00    -0.624 OA
BRANCH 960 963
ATOM    963  O5'   A A  41      28.231 -29.872 -13.879  1.00  0.00    -0.287 OA
BRANCH 963 964
ATOM    964  C5'   A A  41      27.610 -30.908 -14.640  1.00  0.00     0.216 C 
BRANCH 964 965
ATOM    965  C4'   A A  41      27.468 -32.158 -13.802  1.00  0.00     0.180 C 
ATOM    966  O4'   A A  41      28.785 -32.551 -13.328  1.00  0.00    -0.353 OA
ATOM    967  C1'   A A  41      28.704 -32.971 -11.978  1.00  0.00     0.262 C 
ATOM    968  C2'   A A  41      27.225 -33.045 -11.603  1.00  0.00     0.199 C 
ATOM    969  N9    A A  41      29.478 -32.036 -11.161  1.00  0.00    -0.294 N 
ATOM    970  O2'   A A  41      26.747 -34.343 -11.902  1.00  0.00    -0.388 OA
ATOM    971  C3'   A A  41      26.622 -32.007 -12.544  1.00  0.00     0.198 C 
ATOM    972 'HO2   A A  41      25.837 -34.241 -12.182  1.00  0.00     0.210 HD
ATOM    973  O3'   A A  41      25.244 -32.260 -12.812  1.00  0.00    -0.279 OA
ATOM    974  P     A A  42      24.112 -31.352 -12.118  1.00  0.00     0.408 P 
ATOM    975  OP1   A A  42      22.799 -31.797 -12.653  1.00  0.00    -0.624 OA
ATOM    976  O5'   A A  42      24.178 -31.756 -10.577  1.00  0.00    -0.287 OA
ATOM    977  OP2   A A  42      24.508 -29.928 -12.244  1.00  0.00    -0.624 OA
ATOM    978  C5'   A A  42      23.664 -33.008 -10.122  1.00  0.00     0.216 C 
ATOM    979  C4'   A A  42      24.279 -33.375  -8.790  1.00  0.00     0.180 C 
ATOM    980  C3'   A A  42      23.917 -32.461  -7.625  1.00  0.00     0.198 C 
ATOM    981  O4'   A A  42      25.727 -33.286  -8.901  1.00  0.00    -0.353 OA
ATOM    982  O3'   A A  42      22.714 -32.882  -6.984  1.00  0.00    -0.279 OA
ATOM    983  C2'   A A  42      25.133 -32.588  -6.715  1.00  0.00     0.199 C 
ATOM    984  P     T A  43      21.854 -31.828  -6.125  1.00  0.00     0.408 P 
ATOM    985  OP1   T A  43      20.696 -32.562  -5.554  1.00  0.00    -0.624 OA
ATOM    986  O5'   T A  43      22.823 -31.417  -4.928  1.00  0.00    -0.287 OA
ATOM    987  OP2   T A  43      21.618 -30.624  -6.962  1.00  0.00    -0.624 OA
ATOM    988  C5'   T A  43      23.244 -32.376  -3.959  1.00  0.00     0.216 C 
ATOM    989  C4'   T A  43      24.233 -31.752  -3.001  1.00  0.00     0.180 C 
ATOM    990  C3'   T A  43      23.774 -30.458  -2.342  1.00  0.00     0.198 C 
ATOM    991  O4'   T A  43      25.434 -31.391  -3.736  1.00  0.00    -0.353 OA
ATOM    992  O3'   T A  43      23.032 -30.719  -1.153  1.00  0.00    -0.279 OA
ATOM    993  C2'   T A  43      25.089 -29.739  -2.061  1.00  0.00     0.199 C 
ATOM    994  P     C A  44      21.803 -29.763  -0.750  1.00  0.00     0.408 P 
ATOM    995  OP2   C A  44      20.993 -29.507  -1.969  1.00  0.00    -0.624 OA
ATOM    996  OP1   C A  44      21.158 -30.362   0.446  1.00  0.00    -0.624 OA
ATOM    997  O5'   C A  44      22.504 -28.402  -0.304  1.00  0.00    -0.287 OA
ATOM    998  C5'   C A  44      22.009 -27.136  -0.741  1.00  0.00     0.216 C 
ATOM    999  C4'   C A  44      23.106 -26.357  -1.427  1.00  0.00     0.180 C 
ATOM   1000  C3'   C A  44      22.714 -24.964  -1.897  1.00  0.00     0.198 C 
ATOM   1001  O4'   C A  44      23.498 -27.061  -2.639  1.00  0.00    -0.353 OA
ATOM   1002  O3'   C A  44      22.885 -23.998  -0.864  1.00  0.00    -0.279 OA
ATOM   1003  C2'   C A  44      23.656 -24.736  -3.071  1.00  0.00     0.199 C 
ATOM   1004  P     A A  45      21.937 -22.699  -0.815  1.00  0.00     0.408 P 
ATOM   1005  OP1   A A  45      22.132 -22.063   0.513  1.00  0.00    -0.624 OA
ATOM   1006  OP2   A A  45      20.571 -23.085  -1.251  1.00  0.00    -0.624 OA
ATOM   1007  O5'   A A  45      22.556 -21.730  -1.919  1.00  0.00    -0.287 OA
ATOM   1008  C5'   A A  45      23.891 -21.242  -1.803  1.00  0.00     0.216 C 
ATOM   1009  C4'   A A  45      24.149 -20.168  -2.834  1.00  0.00     0.180 C 
ATOM   1010  O4'   A A  45      24.445 -20.806  -4.110  1.00  0.00    -0.353 OA
ATOM   1011  C3'   A A  45      22.975 -19.239  -3.123  1.00  0.00     0.198 C 
ATOM   1012  C1'   A A  45      23.739 -20.150  -5.148  1.00  0.00     0.262 C 
ATOM   1013  N9    A A  45      22.679 -21.042  -5.617  1.00  0.00    -0.294 N 
ATOM   1014  C2'   A A  45      23.228 -18.834  -4.569  1.00  0.00     0.199 C 
ATOM   1015  C4    A A  45      22.123 -21.062  -6.874  1.00  0.00     0.167 A 
ATOM   1016  C8    A A  45      22.037 -22.026  -4.908  1.00  0.00     0.214 A 
ATOM   1017  C5    A A  45      21.173 -22.066  -6.850  1.00  0.00     0.149 A 
ATOM   1018  N3    A A  45      22.433 -20.272  -7.917  1.00  0.00    -0.222 NA
ATOM   1019  C6    A A  45      20.454 -22.293  -8.037  1.00  0.00     0.155 A 
ATOM   1020  N7    A A  45      21.127 -22.669  -5.600  1.00  0.00    -0.236 NA
ATOM   1021  N6    A A  45      19.514 -23.229  -8.164  1.00  0.00    -0.382 N 
ATOM   1022  N1    A A  45      20.740 -21.517  -9.104  1.00  0.00    -0.222 NA
ATOM   1023  H62   A A  45      19.041 -23.355  -9.050  1.00  0.00     0.157 HD
ATOM   1024  H61   A A  45      19.284 -23.822  -7.381  1.00  0.00     0.157 HD
ATOM   1025  C2    A A  45      21.689 -20.580  -8.978  1.00  0.00     0.237 A 
ATOM   1026  O2'   A A  45      24.258 -17.867  -4.657  1.00  0.00    -0.388 OA
ATOM   1027 'HO2   A A  45      24.341 -17.471  -3.789  1.00  0.00     0.210 HD
ATOM   1028  O3'   A A  45      22.957 -18.121  -2.239  1.00  0.00    -0.279 OA
ATOM   1029  P     C A  46      21.560 -17.408  -1.882  1.00  0.00     0.408 P 
ATOM   1030  OP2   C A  46      20.550 -18.461  -1.609  1.00  0.00    -0.624 OA
ATOM   1031  O5'   C A  46      21.149 -16.667  -3.231  1.00  0.00    -0.287 OA
ATOM   1032  OP1   C A  46      21.839 -16.374  -0.853  1.00  0.00    -0.624 OA
ATOM   1033  C5'   C A  46      21.964 -15.633  -3.780  1.00  0.00     0.216 C 
ATOM   1034  C4'   C A  46      21.533 -15.324  -5.195  1.00  0.00     0.180 C 
ATOM   1035  O4'   C A  46      21.683 -16.520  -6.007  1.00  0.00    -0.353 OA
ATOM   1036  C3'   C A  46      20.071 -14.931  -5.361  1.00  0.00     0.198 C 
ATOM   1037  C1'   C A  46      20.605 -16.617  -6.921  1.00  0.00     0.264 C 
ATOM   1038  C2'   C A  46      19.785 -15.332  -6.803  1.00  0.00     0.199 C 
ATOM   1039  N1    C A  46      19.845 -17.841  -6.613  1.00  0.00    -0.278 N 
ATOM   1040  O2'   C A  46      20.305 -14.379  -7.711  1.00  0.00    -0.388 OA
ATOM   1041 'HO2   C A  46      20.485 -13.586  -7.205  1.00  0.00     0.210 HD
ATOM   1042  C2    C A  46      19.118 -18.459  -7.633  1.00  0.00     0.352 A 
ATOM   1043  C6    C A  46      19.851 -18.371  -5.352  1.00  0.00     0.102 A 
ATOM   1044  N3    C A  46      18.423 -19.586  -7.361  1.00  0.00    -0.177 NA
ATOM   1045  O2    C A  46      19.127 -17.959  -8.767  1.00  0.00    -0.244 OA
ATOM   1046  C4    C A  46      18.440 -20.098  -6.129  1.00  0.00     0.128 A 
ATOM   1047  N4    C A  46      17.743 -21.212  -5.909  1.00  0.00    -0.384 N 
ATOM   1048  C5    C A  46      19.173 -19.490  -5.069  1.00  0.00     0.067 A 
ATOM   1049  H42   C A  46      17.221 -21.631  -6.665  1.00  0.00     0.157 HD
ATOM   1050  H41   C A  46      17.730 -21.631  -4.991  1.00  0.00     0.157 HD
ATOM   1051  O3'   C A  46      19.876 -13.538  -5.134  1.00  0.00    -0.279 OA
ATOM   1052  P     G A  47      18.418 -12.989  -4.736  1.00  0.00     0.408 P 
ATOM   1053  OP1   G A  47      18.494 -11.506  -4.729  1.00  0.00    -0.624 OA
ATOM   1054  O5'   G A  47      17.491 -13.435  -5.953  1.00  0.00    -0.287 OA
ATOM   1055  OP2   G A  47      17.964 -13.706  -3.517  1.00  0.00    -0.624 OA
ATOM   1056  C5'   G A  47      17.618 -12.827  -7.238  1.00  0.00     0.216 C 
ATOM   1057  C4'   G A  47      16.485 -13.267  -8.137  1.00  0.00     0.180 C 
ATOM   1058  C3'   G A  47      15.111 -13.328  -7.483  1.00  0.00     0.198 C 
ATOM   1059  O4'   G A  47      16.734 -14.628  -8.570  1.00  0.00    -0.353 OA
ATOM   1060  C2'   G A  47      14.375 -14.349  -8.345  1.00  0.00     0.199 C 
ATOM   1061  O3'   G A  47      14.469 -12.055  -7.491  1.00  0.00    -0.279 OA
ATOM   1062  C1'   G A  47      15.503 -15.313  -8.716  1.00  0.00     0.262 C 
ATOM   1063  O2'   G A  47      13.882 -13.753  -9.530  1.00  0.00    -0.388 OA
ATOM   1064  N9    G A  47      15.545 -16.515  -7.888  1.00  0.00    -0.293 N 
ATOM   1065  C8    G A  47      16.243 -16.697  -6.719  1.00  0.00     0.214 A 
ATOM   1066  C4    G A  47      14.887 -17.695  -8.134  1.00  0.00     0.187 A 
ATOM   1067  N7    G A  47      16.090 -17.889  -6.209  1.00  0.00    -0.234 NA
ATOM   1068  C5    G A  47      15.233 -18.531  -7.094  1.00  0.00     0.173 A 
ATOM   1069  C6    G A  47      14.700 -19.849  -7.071  1.00  0.00     0.292 A 
ATOM   1070  O6    G A  47      14.884 -20.743  -6.236  1.00  0.00    -0.265 OA
ATOM   1071  N1    G A  47      13.873 -20.084  -8.164  1.00  0.00    -0.153 N 
ATOM   1072  C2    G A  47      13.594 -19.172  -9.151  1.00  0.00     0.703 A 
ATOM   1073  H1    G A  47      13.450 -20.998  -8.232  1.00  0.00     0.187 HD
ATOM   1074  N2    G A  47      12.776 -19.581 -10.122  1.00  0.00    -0.233 N 
ATOM   1075  N3    G A  47      14.080 -17.946  -9.184  1.00  0.00    -0.044 NA
ATOM   1076  H21   G A  47      12.541 -18.945 -10.869  1.00  0.00     0.174 HD
ATOM   1077  H22   G A  47      12.394 -20.517 -10.114  1.00  0.00     0.174 HD
ATOM   1078 'HO2   G A  47      13.737 -12.828  -9.327  1.00  0.00     0.210 HD
ATOM   1079  C1'   C A  44      23.691 -26.132  -3.692  1.00  0.00     0.264 C 
ATOM   1080  O2'   C A  44      24.957 -24.405  -2.623  1.00  0.00    -0.388 OA
ATOM   1081  N1    C A  44      22.650 -26.360  -4.710  1.00  0.00    -0.278 N 
ATOM   1082  C6    C A  44      21.605 -27.206  -4.466  1.00  0.00     0.102 A 
ATOM   1083  C2    C A  44      22.748 -25.696  -5.937  1.00  0.00     0.352 A 
ATOM   1084  C5    C A  44      20.657 -27.419  -5.387  1.00  0.00     0.067 A 
ATOM   1085  C4    C A  44      20.783 -26.731  -6.629  1.00  0.00     0.128 A 
ATOM   1086  N4    C A  44      19.870 -26.901  -7.585  1.00  0.00    -0.384 N 
ATOM   1087  N3    C A  44      21.799 -25.904  -6.878  1.00  0.00    -0.177 NA
ATOM   1088  H41   C A  44      19.086 -27.519  -7.432  1.00  0.00     0.157 HD
ATOM   1089  H42   C A  44      19.962 -26.409  -8.463  1.00  0.00     0.157 HD
ATOM   1090  O2    C A  44      23.702 -24.931  -6.134  1.00  0.00    -0.244 OA
ATOM   1091 'HO2   C A  44      24.860 -24.041  -1.742  1.00  0.00     0.210 HD
ATOM   1092  C1'   T A  43      25.917 -30.139  -3.283  1.00  0.00     0.264 C 
ATOM   1093  O2'   T A  43      25.715 -30.256  -0.901  1.00  0.00    -0.388 OA
ATOM   1094  N1    T A  43      25.833 -29.183  -4.396  1.00  0.00    -0.280 N 
ATOM   1095  C2    T A  43      26.873 -28.287  -4.559  1.00  0.00     0.331 A 
ATOM   1096  C6    T A  43      24.755 -29.180  -5.251  1.00  0.00     0.104 A 
ATOM   1097  N3    T A  43      26.736 -27.425  -5.616  1.00  0.00    -0.275 N 
ATOM   1098  O2    T A  43      27.844 -28.257  -3.824  1.00  0.00    -0.246 OA
ATOM   1099  H3    T A  43      27.479 -26.758  -5.752  1.00  0.00     0.173 HD
ATOM   1100  C4    T A  43      25.690 -27.368  -6.508  1.00  0.00     0.250 A 
ATOM   1101  O4    T A  43      25.713 -26.538  -7.415  1.00  0.00    -0.268 OA
ATOM   1102  C5    T A  43      24.655 -28.324  -6.272  1.00  0.00     0.092 A 
ATOM   1103 'HO2   T A  43      25.093 -30.864  -0.500  1.00  0.00     0.210 HD
ATOM   1104  C1'   A A  42      26.260 -32.669  -7.742  1.00  0.00     0.262 C 
ATOM   1105  O2'   A A  42      25.100 -33.798  -5.982  1.00  0.00    -0.388 OA
ATOM   1106  N9    A A  42      26.804 -31.367  -8.125  1.00  0.00    -0.294 N 
ATOM   1107  C8    A A  42      26.488 -30.621  -9.233  1.00  0.00     0.214 A 
ATOM   1108  C4    A A  42      27.744 -30.638  -7.438  1.00  0.00     0.167 A 
ATOM   1109  N7    A A  42      27.141 -29.489  -9.311  1.00  0.00    -0.236 NA
ATOM   1110  C5    A A  42      27.942 -29.487  -8.178  1.00  0.00     0.149 A 
ATOM   1111  C6    A A  42      28.874 -28.561  -7.681  1.00  0.00     0.155 A 
ATOM   1112  N6    A A  42      29.170 -27.412  -8.288  1.00  0.00    -0.382 N 
ATOM   1113  N1    A A  42      29.501 -28.860  -6.523  1.00  0.00    -0.222 NA
ATOM   1114  H61   A A  42      28.707 -27.177  -9.157  1.00  0.00     0.157 HD
ATOM   1115  H62   A A  42      29.849 -26.784  -7.885  1.00  0.00     0.157 HD
ATOM   1116  C2    A A  42      29.205 -30.017  -5.915  1.00  0.00     0.237 A 
ATOM   1117  N3    A A  42      28.350 -30.968  -6.285  1.00  0.00    -0.222 NA
ATOM   1118 'HO2   A A  42      24.223 -34.166  -6.091  1.00  0.00     0.210 HD
ATOM   1119  C4    A A  41      29.928 -32.254  -9.881  1.00  0.00     0.167 A 
ATOM   1120  C8    A A  41      29.909 -30.778 -11.501  1.00  0.00     0.214 A 
ATOM   1121  N3    A A  41      29.745 -33.352  -9.128  1.00  0.00    -0.222 NA
ATOM   1122  C5    A A  41      30.613 -31.107  -9.523  1.00  0.00     0.149 A 
ATOM   1123  C2    A A  41      30.326 -33.207  -7.939  1.00  0.00     0.237 A 
ATOM   1124  N1    A A  41      31.018 -32.168  -7.455  1.00  0.00    -0.222 NA
ATOM   1125  C6    A A  41      31.183 -31.081  -8.238  1.00  0.00     0.155 A 
ATOM   1126  N6    A A  41      31.874 -30.048  -7.755  1.00  0.00    -0.382 N 
ATOM   1127  H61   A A  41      32.011 -29.225  -8.324  1.00  0.00     0.157 HD
ATOM   1128  H62   A A  41      32.257 -30.093  -6.822  1.00  0.00     0.157 HD
ATOM   1129  N7    A A  41      30.594 -30.181 -10.556  1.00  0.00    -0.236 NA
BRANCH 1061 1130
ATOM   1130  P     T A  48      13.814 -11.474  -6.140  1.00  0.00     0.408 P 
ATOM   1131  OP1   T A  48      14.069 -10.012  -6.139  1.00  0.00    -0.624 OA
ATOM   1132  OP2   T A  48      14.254 -12.294  -4.981  1.00  0.00    -0.624 OA
BRANCH 1130 1133
ATOM   1133  O5'   T A  48      12.247 -11.689  -6.345  1.00  0.00    -0.287 OA
BRANCH 1133 1134
ATOM   1134  C5'   T A  48      11.618 -12.926  -6.008  1.00  0.00     0.216 C 
BRANCH 1134 1135
ATOM   1135  C4'   T A  48      11.104 -13.603  -7.256  1.00  0.00     0.180 C 
ATOM   1136  O4'   T A  48      11.765 -14.891  -7.389  1.00  0.00    -0.353 OA
ATOM   1137  C1'   T A  48      10.840 -15.860  -7.849  1.00  0.00     0.264 C 
ATOM   1138  N1    T A  48      10.674 -16.876  -6.799  1.00  0.00    -0.280 N 
ATOM   1139  C2'   T A  48       9.548 -15.125  -8.208  1.00  0.00     0.199 C 
ATOM   1140  C2    T A  48      10.268 -18.141  -7.185  1.00  0.00     0.331 A 
ATOM   1141  C6    T A  48      10.913 -16.583  -5.474  1.00  0.00     0.104 A 
ATOM   1142  O2    T A  48      10.052 -18.443  -8.344  1.00  0.00    -0.246 OA
ATOM   1143  N3    T A  48      10.123 -19.041  -6.161  1.00  0.00    -0.275 N 
ATOM   1144  H3    T A  48       9.831 -19.971  -6.419  1.00  0.00     0.173 HD
ATOM   1145  C4    T A  48      10.338 -18.815  -4.821  1.00  0.00     0.250 A 
ATOM   1146  O4    T A  48      10.144 -19.726  -4.017  1.00  0.00    -0.268 OA
ATOM   1147  C5    T A  48      10.761 -17.488  -4.503  1.00  0.00     0.092 A 
ATOM   1148  O2'   T A  48       9.621 -14.713  -9.560  1.00  0.00    -0.388 OA
ATOM   1149  C3'   T A  48       9.615 -13.931  -7.264  1.00  0.00     0.198 C 
ATOM   1150 'HO2   T A  48       8.931 -14.060  -9.685  1.00  0.00     0.210 HD
BRANCH 1149 1151
ATOM   1151  O3'   T A  48       8.834 -12.831  -7.728  1.00  0.00    -0.279 OA
BRANCH 1151 1152
ATOM   1152  P     C A  49       7.665 -12.227  -6.799  1.00  0.00     0.408 P 
ATOM   1153  OP1   C A  49       7.519 -10.790  -7.143  1.00  0.00    -0.624 OA
ATOM   1154  OP2   C A  49       7.920 -12.621  -5.389  1.00  0.00    -0.624 OA
BRANCH 1152 1155
ATOM   1155  O5'   C A  49       6.349 -12.983  -7.288  1.00  0.00    -0.287 OA
BRANCH 1155 1156
ATOM   1156  C5'   C A  49       5.973 -12.996  -8.665  1.00  0.00     0.216 C 
BRANCH 1156 1157
ATOM   1157  C4'   C A  49       5.535 -14.385  -9.071  1.00  0.00     0.180 C 
ATOM   1158  C3'   C A  49       4.232 -14.875  -8.452  1.00  0.00     0.198 C 
ATOM   1159  C2'   C A  49       4.406 -16.388  -8.496  1.00  0.00     0.199 C 
ATOM   1160  O2'   C A  49       4.190 -16.895  -9.799  1.00  0.00    -0.388 OA
ATOM   1161  C1'   C A  49       5.891 -16.517  -8.158  1.00  0.00     0.264 C 
ATOM   1162 'HO2   C A  49       3.402 -16.464 -10.136  1.00  0.00     0.210 HD
ATOM   1163  N1    C A  49       6.151 -16.664  -6.716  1.00  0.00    -0.278 N 
ATOM   1164  O4'   C A  49       6.532 -15.340  -8.616  1.00  0.00    -0.353 OA
ATOM   1165  C2    C A  49       6.355 -17.943  -6.201  1.00  0.00     0.352 A 
ATOM   1166  C6    C A  49       6.181 -15.575  -5.889  1.00  0.00     0.102 A 
ATOM   1167  O2    C A  49       6.336 -18.907  -6.976  1.00  0.00    -0.244 OA
ATOM   1168  N3    C A  49       6.569 -18.098  -4.875  1.00  0.00    -0.177 NA
ATOM   1169  C4    C A  49       6.587 -17.031  -4.075  1.00  0.00     0.128 A 
ATOM   1170  C5    C A  49       6.392 -15.711  -4.573  1.00  0.00     0.067 A 
ATOM   1171  N4    C A  49       6.793 -17.234  -2.773  1.00  0.00    -0.384 N 
ATOM   1172  H42   C A  49       6.925 -18.174  -2.425  1.00  0.00     0.157 HD
ATOM   1173  H41   C A  49       6.813 -16.455  -2.130  1.00  0.00     0.157 HD
BRANCH 1158 1174
ATOM   1174  O3'   C A  49       3.090 -14.437  -9.186  1.00  0.00    -0.279 OA
ATOM   1175  P     G A  50       2.200 -13.214  -8.632  1.00  0.00     0.408 P 
ATOM   1176  O5'   G A  50       0.800 -13.883  -8.264  1.00  0.00    -0.287 OA
ATOM   1177  OP1   G A  50       1.984 -12.281  -9.767  1.00  0.00    -0.624 OA
ATOM   1178  OP2   G A  50       2.812 -12.708  -7.376  1.00  0.00    -0.624 OA
ATOM   1179  C5'   G A  50      -0.115 -14.292  -9.281  1.00  0.00     0.216 C 
ATOM   1180  C4'   G A  50      -0.522 -15.734  -9.069  1.00  0.00     0.180 C 
ATOM   1181  C3'   G A  50      -1.621 -15.966  -8.041  1.00  0.00     0.198 C 
ATOM   1182  O4'   G A  50       0.615 -16.475  -8.549  1.00  0.00    -0.353 OA
ATOM   1183  C2'   G A  50      -1.364 -17.405  -7.610  1.00  0.00     0.199 C 
ATOM   1184  O3'   G A  50      -2.919 -15.795  -8.606  1.00  0.00    -0.279 OA
ATOM   1185  C1'   G A  50       0.163 -17.456  -7.632  1.00  0.00     0.262 C 
ATOM   1186  O2'   G A  50      -1.865 -18.321  -8.567  1.00  0.00    -0.388 OA
ATOM   1187  N9    G A  50       0.766 -17.189  -6.329  1.00  0.00    -0.293 N 
ATOM   1188  C4    G A  50       0.535 -17.887  -5.169  1.00  0.00     0.187 A 
ATOM   1189  C8    G A  50       1.665 -16.201  -6.013  1.00  0.00     0.214 A 
ATOM   1190  N3    G A  50      -0.289 -18.947  -5.034  1.00  0.00    -0.044 NA
ATOM   1191  C5    G A  50       1.313 -17.273  -4.211  1.00  0.00     0.173 A 
ATOM   1192  C2    G A  50      -0.305 -19.402  -3.795  1.00  0.00     0.703 A 
ATOM   1193  N2    G A  50      -1.080 -20.444  -3.481  1.00  0.00    -0.233 N 
ATOM   1194  N1    G A  50       0.433 -18.868  -2.772  1.00  0.00    -0.153 N 
ATOM   1195  H21   G A  50      -1.648 -20.873  -4.197  1.00  0.00     0.174 HD
ATOM   1196  H22   G A  50      -1.106 -20.790  -2.533  1.00  0.00     0.174 HD
ATOM   1197  H1    G A  50       0.347 -19.301  -1.867  1.00  0.00     0.187 HD
ATOM   1198  C6    G A  50       1.288 -17.779  -2.885  1.00  0.00     0.292 A 
ATOM   1199  O6    G A  50       1.908 -17.376  -1.892  1.00  0.00    -0.265 OA
ATOM   1200  N7    G A  50       2.022 -16.211  -4.758  1.00  0.00    -0.234 NA
ATOM   1201 'HO2   G A  50      -2.630 -17.906  -8.968  1.00  0.00     0.210 HD
ATOM   1202  P     G A  51      -4.121 -15.226  -7.698  1.00  0.00     0.408 P 
ATOM   1203  O5'   G A  51      -4.239 -16.273  -6.501  1.00  0.00    -0.287 OA
ATOM   1204  OP2   G A  51      -3.704 -13.915  -7.136  1.00  0.00    -0.624 OA
ATOM   1205  OP1   G A  51      -5.361 -15.313  -8.511  1.00  0.00    -0.624 OA
ATOM   1206  C5'   G A  51      -4.491 -17.655  -6.757  1.00  0.00     0.216 C 
ATOM   1207  C4'   G A  51      -4.988 -18.342  -5.504  1.00  0.00     0.180 C 
ATOM   1208  O4'   G A  51      -3.865 -18.911  -4.778  1.00  0.00    -0.353 OA
ATOM   1209  C3'   G A  51      -5.649 -17.459  -4.459  1.00  0.00     0.198 C 
ATOM   1210  C1'   G A  51      -4.170 -18.939  -3.391  1.00  0.00     0.262 C 
ATOM   1211  N9    G A  51      -3.140 -18.199  -2.668  1.00  0.00    -0.293 N 
ATOM   1212  C2'   G A  51      -5.567 -18.341  -3.221  1.00  0.00     0.199 C 
ATOM   1213  C4    G A  51      -2.831 -18.328  -1.335  1.00  0.00     0.187 A 
ATOM   1214  C8    G A  51      -2.297 -17.238  -3.169  1.00  0.00     0.214 A 
ATOM   1215  N3    G A  51      -3.425 -19.168  -0.462  1.00  0.00    -0.044 NA
ATOM   1216  C5    G A  51      -1.812 -17.428  -1.107  1.00  0.00     0.173 A 
ATOM   1217  C2    G A  51      -2.913 -19.062   0.750  1.00  0.00     0.703 A 
ATOM   1218  N2    G A  51      -3.389 -19.822   1.739  1.00  0.00    -0.233 N 
ATOM   1219  N1    G A  51      -1.898 -18.202   1.083  1.00  0.00    -0.153 N 
ATOM   1220  H22   G A  51      -3.011 -19.748   2.672  1.00  0.00     0.174 HD
ATOM   1221  H21   G A  51      -4.138 -20.471   1.543  1.00  0.00     0.174 HD
ATOM   1222  C6    G A  51      -1.271 -17.328   0.202  1.00  0.00     0.292 A 
ATOM   1223  H1    G A  51      -1.580 -18.201   2.041  1.00  0.00     0.187 HD
ATOM   1224  O6    G A  51      -0.364 -16.594   0.608  1.00  0.00    -0.265 OA
ATOM   1225  N7    G A  51      -1.485 -16.748  -2.273  1.00  0.00    -0.234 NA
ATOM   1226  O2'   G A  51      -6.518 -19.388  -3.272  1.00  0.00    -0.388 OA
ATOM   1227 'HO2   G A  51      -7.290 -19.036  -3.716  1.00  0.00     0.210 HD
ATOM   1228  O3'   G A  51      -6.989 -17.116  -4.797  1.00  0.00    -0.279 OA
ATOM   1229  P     G A  52      -7.684 -15.842  -4.103  1.00  0.00     0.408 P 
ATOM   1230  O5'   G A  52      -7.712 -16.213  -2.553  1.00  0.00    -0.287 OA
ATOM   1231  OP2   G A  52      -6.795 -14.667  -4.286  1.00  0.00    -0.624 OA
ATOM   1232  OP1   G A  52      -9.086 -15.784  -4.591  1.00  0.00    -0.624 OA
ATOM   1233  C5'   G A  52      -8.646 -17.163  -2.044  1.00  0.00     0.216 C 
ATOM   1234  C4'   G A  52      -8.347 -17.476  -0.595  1.00  0.00     0.180 C 
ATOM   1235  O4'   G A  52      -6.938 -17.786  -0.433  1.00  0.00    -0.353 OA
ATOM   1236  C3'   G A  52      -8.555 -16.341   0.395  1.00  0.00     0.198 C 
ATOM   1237  C1'   G A  52      -6.538 -17.465   0.890  1.00  0.00     0.262 C 
ATOM   1238  C2'   G A  52      -7.734 -16.813   1.589  1.00  0.00     0.199 C 
ATOM   1239  N9    G A  52      -5.366 -16.598   0.828  1.00  0.00    -0.293 N 
ATOM   1240  O2'   G A  52      -8.423 -17.808   2.323  1.00  0.00    -0.388 OA
ATOM   1241 'HO2   G A  52      -9.334 -17.786   2.029  1.00  0.00     0.210 HD
ATOM   1242  C8    G A  52      -4.861 -15.956  -0.277  1.00  0.00     0.214 A 
ATOM   1243  C4    G A  52      -4.548 -16.257   1.879  1.00  0.00     0.187 A 
ATOM   1244  N7    G A  52      -3.802 -15.240  -0.018  1.00  0.00    -0.234 NA
ATOM   1245  C5    G A  52      -3.592 -15.420   1.344  1.00  0.00     0.173 A 
ATOM   1246  C6    G A  52      -2.589 -14.892   2.200  1.00  0.00     0.292 A 
ATOM   1247  O6    G A  52      -1.653 -14.135   1.919  1.00  0.00    -0.265 OA
ATOM   1248  N1    G A  52      -2.751 -15.332   3.509  1.00  0.00    -0.153 N 
ATOM   1249  C2    G A  52      -3.745 -16.171   3.940  1.00  0.00     0.703 A 
ATOM   1250  H1    G A  52      -2.084 -15.006   4.191  1.00  0.00     0.187 HD
ATOM   1251  N2    G A  52      -3.734 -16.478   5.240  1.00  0.00    -0.233 N 
ATOM   1252  N3    G A  52      -4.683 -16.672   3.156  1.00  0.00    -0.044 NA
ATOM   1253  H21   G A  52      -4.445 -17.092   5.609  1.00  0.00     0.174 HD
ATOM   1254  H22   G A  52      -3.024 -16.097   5.850  1.00  0.00     0.174 HD
ATOM   1255  O3'   G A  52      -9.930 -16.153   0.717  1.00  0.00    -0.279 OA
ATOM   1256  P     G A  53     -10.426 -14.741   1.309  1.00  0.00     0.408 P 
ATOM   1257  OP2   G A  53      -9.862 -13.653   0.472  1.00  0.00    -0.624 OA
ATOM   1258  OP1   G A  53     -11.897 -14.835   1.496  1.00  0.00    -0.624 OA
ATOM   1259  O5'   G A  53      -9.749 -14.665   2.750  1.00  0.00    -0.287 OA
ATOM   1260  C5'   G A  53     -10.059 -15.628   3.756  1.00  0.00     0.216 C 
ATOM   1261  C4'   G A  53      -9.241 -15.369   5.001  1.00  0.00     0.180 C 
ATOM   1262  C3'   G A  53      -9.300 -13.956   5.557  1.00  0.00     0.198 C 
ATOM   1263  O4'   G A  53      -7.831 -15.548   4.706  1.00  0.00    -0.353 OA
ATOM   1264  O3'   G A  53     -10.487 -13.729   6.312  1.00  0.00    -0.279 OA
ATOM   1265  C2'   G A  53      -8.041 -13.904   6.415  1.00  0.00     0.199 C 
ATOM   1266  P     T A  54     -11.002 -12.225   6.557  1.00  0.00     0.408 P 
ATOM   1267  OP2   T A  54     -10.982 -11.501   5.261  1.00  0.00    -0.624 OA
ATOM   1268  O5'   T A  54      -9.890 -11.585   7.502  1.00  0.00    -0.287 OA
ATOM   1269  OP1   T A  54     -12.268 -12.312   7.329  1.00  0.00    -0.624 OA
ATOM   1270  C5'   T A  54      -9.667 -12.088   8.817  1.00  0.00     0.216 C 
ATOM   1271  C4'   T A  54      -8.547 -11.327   9.487  1.00  0.00     0.180 C 
ATOM   1272  O4'   T A  54      -7.313 -11.541   8.753  1.00  0.00    -0.353 OA
ATOM   1273  C3'   T A  54      -8.693  -9.813   9.507  1.00  0.00     0.198 C 
ATOM   1274  C1'   T A  54      -6.498 -10.385   8.851  1.00  0.00     0.264 C 
ATOM   1275  N1    T A  54      -6.184  -9.918   7.493  1.00  0.00    -0.280 N 
ATOM   1276  C2'   T A  54      -7.252  -9.354   9.693  1.00  0.00     0.199 C 
ATOM   1277  C6    T A  54      -6.969 -10.262   6.415  1.00  0.00     0.104 A 
ATOM   1278  C2    T A  54      -5.069  -9.116   7.333  1.00  0.00     0.331 A 
ATOM   1279  C5    T A  54      -6.700  -9.847   5.173  1.00  0.00     0.092 A 
ATOM   1280  C4    T A  54      -5.566  -9.012   4.929  1.00  0.00     0.250 A 
ATOM   1281  N3    T A  54      -4.828  -8.708   6.048  1.00  0.00    -0.275 N 
ATOM   1282  O4    T A  54      -5.225  -8.554   3.839  1.00  0.00    -0.268 OA
ATOM   1283  H3    T A  54      -4.020  -8.118   5.914  1.00  0.00     0.173 HD
ATOM   1284  O2    T A  54      -4.349  -8.790   8.259  1.00  0.00    -0.246 OA
ATOM   1285  O2'   T A  54      -6.844  -9.486  11.041  1.00  0.00    -0.388 OA
ATOM   1286 'HO2   T A  54      -7.639  -9.614  11.559  1.00  0.00     0.210 HD
ATOM   1287  O2'   G A  53      -8.236 -14.576   7.646  1.00  0.00    -0.388 OA
ATOM   1288  C1'   G A  53      -7.065 -14.718   5.564  1.00  0.00     0.262 C 
ATOM   1289 'HO2   G A  53      -9.178 -14.728   7.730  1.00  0.00     0.210 HD
ATOM   1290  N9    G A  53      -6.182 -13.892   4.746  1.00  0.00    -0.293 N 
ATOM   1291  C8    G A  53      -6.261 -13.677   3.391  1.00  0.00     0.214 A 
ATOM   1292  C4    G A  53      -5.101 -13.168   5.189  1.00  0.00     0.187 A 
ATOM   1293  N7    G A  53      -5.328 -12.884   2.940  1.00  0.00    -0.234 NA
ATOM   1294  C5    G A  53      -4.587 -12.553   4.067  1.00  0.00     0.173 A 
ATOM   1295  C6    G A  53      -3.444 -11.721   4.208  1.00  0.00     0.292 A 
ATOM   1296  O6    G A  53      -2.838 -11.087   3.336  1.00  0.00    -0.265 OA
ATOM   1297  N1    G A  53      -3.014 -11.663   5.528  1.00  0.00    -0.153 N 
ATOM   1298  C2    G A  53      -3.602 -12.319   6.578  1.00  0.00     0.703 A 
ATOM   1299  H1    G A  53      -2.205 -11.093   5.726  1.00  0.00     0.187 HD
ATOM   1300  N3    G A  53      -4.663 -13.097   6.463  1.00  0.00    -0.044 NA
ATOM   1301  N2    G A  53      -3.042 -12.135   7.775  1.00  0.00    -0.233 N 
ATOM   1302  H22   G A  53      -2.230 -11.541   7.876  1.00  0.00     0.174 HD
ATOM   1303  H21   G A  53      -3.436 -12.595   8.583  1.00  0.00     0.174 HD
BRANCH 1273 1304
ATOM   1304  O3'   T A  54      -9.545  -9.377  10.564  1.00  0.00    -0.279 OA
BRANCH 1304 1305
ATOM   1305  P     C A  55     -10.264  -7.941  10.469  1.00  0.00     0.408 P 
ATOM   1306  OP2   C A  55     -10.835  -7.790   9.106  1.00  0.00    -0.624 OA
ATOM   1307  OP1   C A  55     -11.150  -7.811  11.654  1.00  0.00    -0.624 OA
BRANCH 1305 1308
ATOM   1308  O5'   C A  55      -9.069  -6.898  10.624  1.00  0.00    -0.287 OA
BRANCH 1308 1309
ATOM   1309  C5'   C A  55      -8.311  -6.823  11.831  1.00  0.00     0.216 C 
BRANCH 1309 1310
ATOM   1310  C4'   C A  55      -7.267  -5.736  11.725  1.00  0.00     0.180 C 
ATOM   1311  O4'   C A  55      -6.246  -6.150  10.779  1.00  0.00    -0.353 OA
ATOM   1312  C1'   C A  55      -5.781  -5.024  10.055  1.00  0.00     0.264 C 
ATOM   1313  N1    C A  55      -6.033  -5.256   8.623  1.00  0.00    -0.278 N 
ATOM   1314  C2'   C A  55      -6.488  -3.787  10.611  1.00  0.00     0.199 C 
ATOM   1315  C2    C A  55      -5.168  -4.686   7.686  1.00  0.00     0.352 A 
ATOM   1316  C6    C A  55      -7.094  -6.013   8.211  1.00  0.00     0.102 A 
ATOM   1317  N3    C A  55      -5.390  -4.893   6.369  1.00  0.00    -0.177 NA
ATOM   1318  O2    C A  55      -4.215  -4.003   8.085  1.00  0.00    -0.244 OA
ATOM   1319  C4    C A  55      -6.425  -5.636   5.977  1.00  0.00     0.128 A 
ATOM   1320  N4    C A  55      -6.602  -5.814   4.669  1.00  0.00    -0.384 N 
ATOM   1321  C5    C A  55      -7.325  -6.230   6.910  1.00  0.00     0.067 A 
ATOM   1322  H42   C A  55      -5.955  -5.391   4.017  1.00  0.00     0.157 HD
ATOM   1323  H41   C A  55      -7.373  -6.370   4.329  1.00  0.00     0.157 HD
ATOM   1324  C3'   C A  55      -7.760  -4.401  11.185  1.00  0.00     0.198 C 
BRANCH 1314 1325
ATOM   1325  O2'   C A  55      -5.684  -3.227  11.632  1.00  0.00    -0.388 OA
ATOM   1326 'HO2   C A  55      -6.148  -3.367  12.458  1.00  0.00     0.210 HD
ENDBRANCH 1314 1325
BRANCH 1324 1327
ATOM   1327  O3'   C A  55      -8.333  -3.599  12.215  1.00  0.00    -0.279 OA
BRANCH 1327 1328
ATOM   1328  P     A A  56      -9.370  -2.430  11.834  1.00  0.00     0.408 P 
ATOM   1329  O5'   A A  56      -8.474  -1.346  11.084  1.00  0.00    -0.287 OA
ATOM   1330  C5'   A A  56      -7.415  -0.672  11.762  1.00  0.00     0.216 C 
ATOM   1331  C4'   A A  56      -6.903   0.475  10.921  1.00  0.00     0.180 C 
ATOM   1332  O4'   A A  56      -5.941  -0.037   9.962  1.00  0.00    -0.353 OA
ATOM   1333  C3'   A A  56      -7.949   1.181  10.069  1.00  0.00     0.182 C 
ATOM   1334  C1'   A A  56      -6.062   0.668   8.740  1.00  0.00     0.262 C 
ATOM   1335  N9    A A  56      -6.404  -0.289   7.689  1.00  0.00    -0.294 N 
ATOM   1336  C2'   A A  56      -7.111   1.764   8.936  1.00  0.00     0.198 C 
ATOM   1337  C4    A A  56      -5.861  -0.342   6.428  1.00  0.00     0.167 A 
ATOM   1338  C8    A A  56      -7.321  -1.310   7.746  1.00  0.00     0.214 A 
ATOM   1339  C5    A A  56      -6.489  -1.396   5.791  1.00  0.00     0.149 A 
ATOM   1340  N3    A A  56      -4.916   0.463   5.912  1.00  0.00    -0.222 NA
ATOM   1341  C6    A A  56      -6.105  -1.660   4.465  1.00  0.00     0.155 A 
ATOM   1342  N7    A A  56      -7.410  -2.001   6.636  1.00  0.00    -0.236 NA
ATOM   1343  N1    A A  56      -5.158  -0.870   3.917  1.00  0.00    -0.222 NA
ATOM   1344  N6    A A  56      -6.624  -2.639   3.724  1.00  0.00    -0.382 N 
ATOM   1345  C2    A A  56      -4.637   0.116   4.658  1.00  0.00     0.237 A 
ATOM   1346  H61   A A  56      -7.335  -3.242   4.111  1.00  0.00     0.157 HD
ATOM   1347  H62   A A  56      -6.298  -2.777   2.779  1.00  0.00     0.157 HD
ATOM   1348  O2'   A A  56      -6.457   2.952   9.342  1.00  0.00    -0.388 OA
ATOM   1349 'HO2   A A  56      -6.995   3.346  10.030  1.00  0.00     0.210 HD
ATOM   1350  O3'   A A  56      -8.656   2.188  10.802  1.00  0.00    -0.390 OA
ATOM   1351 'HO3   A A  56      -9.037   1.761  11.573  1.00  0.00     0.210 HD
ATOM   1352  OP2   A A  56     -10.355  -2.970  10.863  1.00  0.00    -0.624 OA
ATOM   1353  OP1   A A  56      -9.847  -1.830  13.106  1.00  0.00    -0.624 OA
ENDBRANCH 1327 1328
ENDBRANCH 1324 1327
ENDBRANCH 1309 1310
ENDBRANCH 1308 1309
ENDBRANCH 1305 1308
ENDBRANCH 1304 1305
ENDBRANCH 1273 1304
ENDBRANCH 1158 1174
ENDBRANCH 1156 1157
ENDBRANCH 1155 1156
ENDBRANCH 1152 1155
ENDBRANCH 1151 1152
ENDBRANCH 1149 1151
ENDBRANCH 1134 1135
ENDBRANCH 1133 1134
ENDBRANCH 1130 1133
ENDBRANCH 1061 1130
ENDBRANCH 964 965
ENDBRANCH 963 964
ENDBRANCH 960 963
ENDBRANCH 959 960
ENDBRANCH 939 959
ENDBRANCH 937 938
ENDBRANCH 936 937
ENDBRANCH 933 936
ENDBRANCH 932 933
ENDBRANCH 844 932
BRANCH 927 1354
ATOM   1354  N4    C A  33      10.446 -25.696   2.830  1.00  0.00    -0.384 N 
ATOM   1355  H42   C A  33       9.956 -26.547   3.068  1.00  0.00     0.157 HD
ATOM   1356  H41   C A  33       9.962 -24.810   2.857  1.00  0.00     0.157 HD
ENDBRANCH 927 1354
ENDBRANCH 742 743
ENDBRANCH 741 742
ENDBRANCH 738 741
ENDBRANCH 737 738
ENDBRANCH 703 737
ENDBRANCH 665 666
ENDBRANCH 664 665
ENDBRANCH 661 664
ENDBRANCH 660 661
ENDBRANCH 640 660
ENDBRANCH 638 639
ENDBRANCH 637 638
ENDBRANCH 634 637
ENDBRANCH 633 634
ENDBRANCH 588 633
BRANCH 561 1357
ATOM   1357  O2'   A A  24      12.195 -37.317  21.713  1.00  0.00    -0.388 OA
ATOM   1358 'HO2   A A  24      11.931 -37.627  20.846  1.00  0.00     0.210 HD
ENDBRANCH 561 1357
BRANCH 631 1359
ATOM   1359  N9    A A  24      14.210 -34.438  22.710  1.00  0.00    -0.294 N 
ATOM   1360  C8    A A  24      14.914 -33.428  22.101  1.00  0.00     0.214 A 
ATOM   1361  N7    A A  24      14.952 -32.317  22.797  1.00  0.00    -0.236 NA
ATOM   1362  C5    A A  24      14.224 -32.615  23.941  1.00  0.00     0.149 A 
ATOM   1363  C4    A A  24      13.762 -33.918  23.900  1.00  0.00     0.167 A 
ATOM   1364  C6    A A  24      13.893 -31.856  25.077  1.00  0.00     0.155 A 
ATOM   1365  N3    A A  24      13.026 -34.541  24.836  1.00  0.00    -0.222 NA
ATOM   1366  C2    A A  24      12.777 -33.724  25.857  1.00  0.00     0.237 A 
ATOM   1367  N1    A A  24      13.153 -32.452  26.035  1.00  0.00    -0.222 NA
ATOM   1368  N6    A A  24      14.266 -30.590  25.257  1.00  0.00    -0.382 N 
ATOM   1369  H62   A A  24      13.993 -30.106  26.102  1.00  0.00     0.157 HD
ATOM   1370  H61   A A  24      14.820 -30.120  24.556  1.00  0.00     0.157 HD
ENDBRANCH 631 1359
ENDBRANCH 557 558
ENDBRANCH 556 557
ENDBRANCH 553 556
ENDBRANCH 552 553
ENDBRANCH 534 552
BRANCH 535 1371
ATOM   1371  O2'   G A  23      18.391 -35.938  19.793  1.00  0.00    -0.388 OA
ATOM   1372 'HO2   G A  23      18.331 -35.693  18.869  1.00  0.00     0.210 HD
ENDBRANCH 535 1371
ENDBRANCH 532 533
ENDBRANCH 531 532
ENDBRANCH 499 531
ENDBRANCH 484 485
ENDBRANCH 483 484
ENDBRANCH 480 483
ENDBRANCH 479 480
ENDBRANCH 465 479
BRANCH 467 1373
ATOM   1373  O2'   C A  20      25.310 -29.171  33.577  1.00  0.00    -0.388 OA
ATOM   1374 'HO2   C A  20      24.738 -28.484  33.920  1.00  0.00     0.210 HD
ENDBRANCH 467 1373
ENDBRANCH 462 463
ENDBRANCH 459 462
ENDBRANCH 458 459
ENDBRANCH 446 458
ENDBRANCH 441 442
ENDBRANCH 425 441
ENDBRANCH 299 300
ENDBRANCH 298 299
ENDBRANCH 295 298
ENDBRANCH 294 295
ENDBRANCH 291 294
ENDBRANCH 272 273
ENDBRANCH 271 272
ENDBRANCH 268 271
ENDBRANCH 267 268
ENDBRANCH 254 267
ENDBRANCH 249 250
ENDBRANCH 248 249
ENDBRANCH 245 248
ENDBRANCH 244 245
ENDBRANCH 227 244
ENDBRANCH 222 223
ENDBRANCH 206 222
ENDBRANCH 195 196
ENDBRANCH 194 195
ENDBRANCH 191 194
ENDBRANCH 190 191
ENDBRANCH 179 190
ENDBRANCH 173 174
ENDBRANCH 172 173
ENDBRANCH 169 172
ENDBRANCH 168 169
ENDBRANCH 167 168
TORSDOF 435
