MODEL 1
REMARK VINA RESULT:      -2.9      0.000      0.000
REMARK WARNING: 32 MAX_TORS EXCEEDED!!!
REMARK  104 active torsions:
REMARK  status: ('A' for Active; 'I' for Inactive)
REMARK       I    between atoms: O5'_2  and  C5'_3 
REMARK       I    between atoms: C5'_3  and  C4'_4 
REMARK       I    between atoms: C1'_6  and  N9_7 
REMARK       I    between atoms: C2_10  and  N2_11 
REMARK       I    between atoms: C2'_21  and  O2'_22 
REMARK       I    between atoms: C3'_24  and  O3'_25 
REMARK       I    between atoms: O3'_25  and  P_26 
REMARK       I    between atoms: P_26  and  O5'_29 
REMARK       I    between atoms: O5'_29  and  C5'_30 
REMARK       I    between atoms: C5'_30  and  C4'_31 
REMARK       I    between atoms: C1'_33  and  N9_34 
REMARK       I    between atoms: C6_39  and  N6_40 
REMARK       I    between atoms: C2'_46  and  O2'_47 
REMARK       I    between atoms: C3'_49  and  O3'_50 
REMARK       I    between atoms: O3'_50  and  P_51 
REMARK       I    between atoms: P_51  and  O5'_54 
REMARK       I    between atoms: O5'_54  and  C5'_55 
REMARK       I    between atoms: C5'_55  and  C4'_56 
REMARK       I    between atoms: C1'_58  and  N1_59 
REMARK       I    between atoms: C4_64  and  N4_65 
REMARK       I    between atoms: C2'_69  and  O2'_70 
REMARK       I    between atoms: C3'_72  and  O3'_73 
REMARK       I    between atoms: O3'_73  and  P_74 
REMARK       I    between atoms: P_74  and  O5'_77 
REMARK       I    between atoms: O5'_77  and  C5'_78 
REMARK       I    between atoms: C5'_78  and  C4'_79 
REMARK       I    between atoms: C1'_81  and  N1_82 
REMARK       I    between atoms: C4_87  and  N4_88 
REMARK       I    between atoms: C2'_92  and  O2'_93 
REMARK       I    between atoms: C3'_95  and  O3'_96 
REMARK       I    between atoms: O3'_96  and  P_97 
REMARK       I    between atoms: P_97  and  O5'_100 
REMARK       I    between atoms: O5'_100  and  C5'_101 
REMARK       I    between atoms: C5'_101  and  C4'_102 
REMARK       I    between atoms: C1'_104  and  N1_105 
REMARK       I    between atoms: C2'_114  and  O2'_115 
REMARK       I    between atoms: C3'_117  and  O3'_118 
REMARK       I    between atoms: O3'_118  and  P_119 
REMARK       I    between atoms: P_119  and  O5'_122 
REMARK       I    between atoms: O5'_122  and  C5'_123 
REMARK       I    between atoms: C5'_123  and  C4'_124 
REMARK       I    between atoms: C1'_126  and  N1_127 
REMARK       I    between atoms: C4_132  and  N4_133 
REMARK       I    between atoms: C2'_137  and  O2'_138 
REMARK       I    between atoms: C3'_140  and  O3'_141 
REMARK       I    between atoms: O3'_141  and  P_142 
REMARK       I    between atoms: P_142  and  O5'_145 
REMARK       I    between atoms: O5'_145  and  C5'_146 
REMARK       I    between atoms: C5'_146  and  C4'_147 
REMARK       I    between atoms: C1'_149  and  N9_150 
REMARK       I    between atoms: C2_153  and  N2_154 
REMARK       I    between atoms: C2'_164  and  O2'_165 
REMARK    1  A    between atoms: C3'_167  and  O3'_168 
REMARK    2  A    between atoms: O3'_168  and  P_169 
REMARK    3  A    between atoms: P_169  and  O5'_172 
REMARK    4  A    between atoms: O5'_172  and  C5'_173 
REMARK    5  A    between atoms: C5'_173  and  C4'_174 
REMARK       I    between atoms: C1'_176  and  N1_177 
REMARK    6  A    between atoms: C2'_186  and  O2'_187 
REMARK    7  A    between atoms: C3'_189  and  O3'_190 
REMARK    8  A    between atoms: O3'_190  and  P_191 
REMARK    9  A    between atoms: P_191  and  O5'_194 
REMARK   10  A    between atoms: O5'_194  and  C5'_195 
REMARK   11  A    between atoms: C5'_195  and  C4'_196 
REMARK       I    between atoms: C1'_198  and  N9_199 
REMARK       I    between atoms: C2_202  and  N2_203 
REMARK   12  A    between atoms: C2'_213  and  O2'_214 
REMARK       I    between atoms: C3'_216  and  O3'_217 
REMARK       I    between atoms: O3'_217  and  P_218 
REMARK       I    between atoms: P_218  and  O5'_221 
REMARK   13  A    between atoms: O5'_221  and  C5'_222 
REMARK   14  A    between atoms: C5'_222  and  C4'_223 
REMARK   15  A    between atoms: C1'_225  and  N9_226 
REMARK       I    between atoms: C2_229  and  N2_230 
REMARK   16  A    between atoms: C2'_240  and  O2'_241 
REMARK   17  A    between atoms: C3'_243  and  O3'_244 
REMARK   18  A    between atoms: O3'_244  and  P_245 
REMARK   19  A    between atoms: P_245  and  O5'_248 
REMARK   20  A    between atoms: O5'_248  and  C5'_249 
REMARK   21  A    between atoms: C5'_249  and  C4'_250 
REMARK   22  A    between atoms: C1'_252  and  N1_253 
REMARK       I    between atoms: C4_258  and  N4_259 
REMARK   23  A    between atoms: C2'_263  and  O2'_264 
REMARK   24  A    between atoms: C3'_266  and  O3'_267 
REMARK   25  A    between atoms: O3'_267  and  P_268 
REMARK   26  A    between atoms: P_268  and  O5'_271 
REMARK   27  A    between atoms: O5'_271  and  C5'_272 
REMARK   28  A    between atoms: C5'_272  and  C4'_273 
REMARK       I    between atoms: C1'_275  and  N9_276 
REMARK       I    between atoms: C2_279  and  N2_280 
REMARK   29  A    between atoms: C2'_290  and  O2'_291 
REMARK   30  A    between atoms: C3'_293  and  O3'_294 
REMARK   31  A    between atoms: O3'_294  and  P_295 
REMARK   32  A    between atoms: P_295  and  O5'_298 
REMARK   33  A    between atoms: O5'_298  and  C5'_299 
REMARK   34  A    between atoms: C5'_299  and  C4'_300 
REMARK       I    between atoms: C1'_302  and  N1_303 
REMARK       I    between atoms: C2'_312  and  O2'_313 
REMARK       I    between atoms: C3'_315  and  O3'_316 
REMARK       I    between atoms: O3'_316  and  P_317 
REMARK       I    between atoms: P_317  and  O5'_320 
REMARK       I    between atoms: O5'_320  and  C5'_321 
REMARK       I    between atoms: C5'_321  and  C4'_322 
REMARK       I    between atoms: C1'_324  and  N1_325 
REMARK       I    between atoms: C4_330  and  N4_331 
REMARK       I    between atoms: C2'_335  and  O2'_336 
REMARK       I    between atoms: C3'_338  and  O3'_339 
REMARK       I    between atoms: O3'_339  and  P_340 
REMARK       I    between atoms: P_340  and  O5'_343 
REMARK       I    between atoms: O5'_343  and  C5'_344 
REMARK       I    between atoms: C5'_344  and  C4'_345 
REMARK       I    between atoms: C1'_347  and  N1_348 
REMARK       I    between atoms: C2'_357  and  O2'_358 
REMARK       I    between atoms: C3'_360  and  O3'_361 
REMARK       I    between atoms: O3'_361  and  P_362 
REMARK       I    between atoms: P_362  and  O5'_365 
REMARK       I    between atoms: O5'_365  and  C5'_366 
REMARK       I    between atoms: C5'_366  and  C4'_367 
REMARK       I    between atoms: C1'_369  and  N9_370 
REMARK       I    between atoms: C2_373  and  N2_374 
REMARK       I    between atoms: C2'_384  and  O2'_385 
REMARK       I    between atoms: C3'_387  and  O3'_388 
REMARK       I    between atoms: O3'_388  and  P_389 
REMARK       I    between atoms: P_389  and  O5'_392 
REMARK       I    between atoms: O5'_392  and  C5'_393 
REMARK       I    between atoms: C5'_393  and  C4'_394 
REMARK       I    between atoms: C1'_396  and  N9_397 
REMARK       I    between atoms: C6_402  and  N6_403 
REMARK       I    between atoms: C2'_409  and  O2'_410 
REMARK       I    between atoms: C3'_412  and  O3'_413 
REMARK       I    between atoms: O3'_413  and  P_414 
REMARK       I    between atoms: P_414  and  O5'_417 
REMARK       I    between atoms: O5'_417  and  C5'_418 
REMARK       I    between atoms: C5'_418  and  C4'_419 
REMARK       I    between atoms: C1'_421  and  N1_422 
REMARK       I    between atoms: C4_427  and  N4_428 
REMARK       I    between atoms: C2'_432  and  O2'_433 
REMARK       I    between atoms: C3'_435  and  O3'_436 
REMARK       I    between atoms: O3'_436  and  P_437 
REMARK       I    between atoms: P_437  and  O5'_440 
REMARK   35  A    between atoms: O5'_440  and  C5'_441 
REMARK   36  A    between atoms: C5'_441  and  C4'_442 
REMARK   37  A    between atoms: C1'_444  and  N1_445 
REMARK   38  A    between atoms: C2'_454  and  O2'_455 
REMARK   39  A    between atoms: C3'_457  and  O3'_458 
REMARK   40  A    between atoms: O3'_458  and  P_459 
REMARK   41  A    between atoms: P_459  and  O5'_462 
REMARK   42  A    between atoms: O5'_462  and  C5'_463 
REMARK       I    between atoms: C5'_463  and  C4'_464 
REMARK       I    between atoms: C1'_466  and  N1_467 
REMARK       I    between atoms: C4_472  and  N4_473 
REMARK   43  A    between atoms: C2'_477  and  O2'_478 
REMARK   44  A    between atoms: C3'_480  and  O3'_481 
REMARK   45  A    between atoms: O3'_481  and  P_482 
REMARK   46  A    between atoms: P_482  and  O5'_485 
REMARK   47  A    between atoms: O5'_485  and  C5'_486 
REMARK   48  A    between atoms: C5'_486  and  C4'_487 
REMARK       I    between atoms: C1'_489  and  N1_490 
REMARK       I    between atoms: C4_495  and  N4_496 
REMARK       I    between atoms: C2'_500  and  O2'_501 
REMARK       I    between atoms: C3'_503  and  O3'_504 
REMARK       I    between atoms: O3'_504  and  P_505 
REMARK       I    between atoms: P_505  and  O5'_508 
REMARK       I    between atoms: O5'_508  and  C5'_509 
REMARK       I    between atoms: C5'_509  and  C4'_510 
REMARK       I    between atoms: C1'_512  and  N9_513 
REMARK       I    between atoms: C6_518  and  N6_519 
REMARK       I    between atoms: C2'_525  and  O2'_526 
REMARK       I    between atoms: C3'_528  and  O3'_529 
REMARK       I    between atoms: O3'_529  and  P_530 
REMARK   49  A    between atoms: P_530  and  O5'_533 
REMARK   50  A    between atoms: O5'_533  and  C5'_534 
REMARK   51  A    between atoms: C5'_534  and  C4'_535 
REMARK       I    between atoms: C1'_537  and  N9_538 
REMARK       I    between atoms: C2_541  and  N2_542 
REMARK   52  A    between atoms: C2'_552  and  O2'_553 
REMARK   53  A    between atoms: C3'_555  and  O3'_556 
REMARK   54  A    between atoms: O3'_556  and  P_557 
REMARK   55  A    between atoms: P_557  and  O5'_560 
REMARK   56  A    between atoms: O5'_560  and  C5'_561 
REMARK   57  A    between atoms: C5'_561  and  C4'_562 
REMARK   58  A    between atoms: C1'_564  and  N9_565 
REMARK       I    between atoms: C6_570  and  N6_571 
REMARK   59  A    between atoms: C2'_577  and  O2'_578 
REMARK       I    between atoms: C3'_580  and  O3'_581 
REMARK       I    between atoms: O3'_581  and  P_582 
REMARK       I    between atoms: P_582  and  O5'_585 
REMARK       I    between atoms: O5'_585  and  C5'_586 
REMARK       I    between atoms: C5'_586  and  C4'_587 
REMARK       I    between atoms: C1'_589  and  N1_590 
REMARK       I    between atoms: C2'_599  and  O2'_600 
REMARK       I    between atoms: C3'_602  and  O3'_603 
REMARK       I    between atoms: O3'_603  and  P_604 
REMARK       I    between atoms: P_604  and  O5'_607 
REMARK       I    between atoms: O5'_607  and  C5'_608 
REMARK       I    between atoms: C5'_608  and  C4'_609 
REMARK       I    between atoms: C1'_611  and  N1_612 
REMARK       I    between atoms: C4_617  and  N4_618 
REMARK       I    between atoms: C2'_622  and  O2'_623 
REMARK       I    between atoms: C3'_625  and  O3'_626 
REMARK       I    between atoms: O3'_626  and  P_627 
REMARK       I    between atoms: P_627  and  O5'_630 
REMARK       I    between atoms: O5'_630  and  C5'_631 
REMARK       I    between atoms: C5'_631  and  C4'_632 
REMARK       I    between atoms: C1'_634  and  N9_635 
REMARK       I    between atoms: C6_640  and  N6_641 
REMARK       I    between atoms: C2'_647  and  O2'_648 
REMARK   60  A    between atoms: C3'_650  and  O3'_651 
REMARK   61  A    between atoms: O3'_651  and  P_652 
REMARK   62  A    between atoms: P_652  and  O5'_655 
REMARK   63  A    between atoms: O5'_655  and  C5'_656 
REMARK   64  A    between atoms: C5'_656  and  C4'_657 
REMARK       I    between atoms: C1'_659  and  N9_660 
REMARK       I    between atoms: C2_663  and  N2_664 
REMARK       I    between atoms: C2'_674  and  O2'_675 
REMARK   65  A    between atoms: C3'_677  and  O3'_678 
REMARK   66  A    between atoms: O3'_678  and  P_679 
REMARK   67  A    between atoms: P_679  and  O5'_682 
REMARK   68  A    between atoms: O5'_682  and  C5'_683 
REMARK   69  A    between atoms: C5'_683  and  C4'_684 
REMARK       I    between atoms: C1'_686  and  N9_687 
REMARK       I    between atoms: C6_692  and  N6_693 
REMARK       I    between atoms: C2'_699  and  O2'_700 
REMARK       I    between atoms: C3'_702  and  O3'_703 
REMARK       I    between atoms: O3'_703  and  P_704 
REMARK       I    between atoms: P_704  and  O5'_707 
REMARK       I    between atoms: O5'_707  and  C5'_708 
REMARK       I    between atoms: C5'_708  and  C4'_709 
REMARK       I    between atoms: C1'_711  and  N9_712 
REMARK       I    between atoms: C6_717  and  N6_718 
REMARK       I    between atoms: C2'_724  and  O2'_725 
REMARK       I    between atoms: C3'_727  and  O3'_728 
REMARK       I    between atoms: O3'_728  and  P_729 
REMARK       I    between atoms: P_729  and  O5'_732 
REMARK       I    between atoms: O5'_732  and  C5'_733 
REMARK       I    between atoms: C5'_733  and  C4'_734 
REMARK       I    between atoms: C1'_736  and  N9_737 
REMARK       I    between atoms: C2_740  and  N2_741 
REMARK       I    between atoms: C2'_751  and  O2'_752 
REMARK   70  A    between atoms: C3'_754  and  O3'_755 
REMARK   71  A    between atoms: O3'_755  and  P_756 
REMARK   72  A    between atoms: P_756  and  O5'_759 
REMARK   73  A    between atoms: O5'_759  and  C5'_760 
REMARK   74  A    between atoms: C5'_760  and  C4'_761 
REMARK       I    between atoms: C1'_763  and  N9_764 
REMARK       I    between atoms: C2_767  and  N2_768 
REMARK       I    between atoms: C2'_778  and  O2'_779 
REMARK       I    between atoms: C3'_781  and  O3'_782 
REMARK       I    between atoms: O3'_782  and  P_783 
REMARK       I    between atoms: P_783  and  O5'_786 
REMARK       I    between atoms: O5'_786  and  C5'_787 
REMARK       I    between atoms: C5'_787  and  C4'_788 
REMARK       I    between atoms: C1'_790  and  N1_791 
REMARK   75  A    between atoms: C4_796  and  N4_797 
REMARK       I    between atoms: C2'_801  and  O2'_802 
REMARK       I    between atoms: C3'_804  and  O3'_805 
REMARK       I    between atoms: O3'_805  and  P_806 
REMARK       I    between atoms: P_806  and  O5'_809 
REMARK       I    between atoms: O5'_809  and  C5'_810 
REMARK       I    between atoms: C5'_810  and  C4'_811 
REMARK       I    between atoms: C1'_813  and  N1_814 
REMARK       I    between atoms: C2'_823  and  O2'_824 
REMARK       I    between atoms: C3'_826  and  O3'_827 
REMARK       I    between atoms: O3'_827  and  P_828 
REMARK       I    between atoms: P_828  and  O5'_831 
REMARK       I    between atoms: O5'_831  and  C5'_832 
REMARK       I    between atoms: C5'_832  and  C4'_833 
REMARK       I    between atoms: C1'_835  and  N9_836 
REMARK       I    between atoms: C2_839  and  N2_840 
REMARK       I    between atoms: C2'_850  and  O2'_851 
REMARK       I    between atoms: C3'_853  and  O3'_854 
REMARK       I    between atoms: O3'_854  and  P_855 
REMARK       I    between atoms: P_855  and  O5'_858 
REMARK       I    between atoms: O5'_858  and  C5'_859 
REMARK       I    between atoms: C5'_859  and  C4'_860 
REMARK       I    between atoms: C1'_862  and  N1_863 
REMARK       I    between atoms: C4_868  and  N4_869 
REMARK       I    between atoms: C2'_873  and  O2'_874 
REMARK       I    between atoms: C3'_876  and  O3'_877 
REMARK       I    between atoms: O3'_877  and  P_878 
REMARK       I    between atoms: P_878  and  O5'_881 
REMARK       I    between atoms: O5'_881  and  C5'_882 
REMARK       I    between atoms: C5'_882  and  C4'_883 
REMARK       I    between atoms: C1'_885  and  N9_886 
REMARK       I    between atoms: C2_889  and  N2_890 
REMARK       I    between atoms: C2'_900  and  O2'_901 
REMARK       I    between atoms: C3'_903  and  O3'_904 
REMARK       I    between atoms: O3'_904  and  P_905 
REMARK       I    between atoms: P_905  and  O5'_908 
REMARK       I    between atoms: O5'_908  and  C5'_909 
REMARK       I    between atoms: C5'_909  and  C4'_910 
REMARK       I    between atoms: C1'_912  and  N1_913 
REMARK       I    between atoms: C2'_922  and  O2'_923 
REMARK       I    between atoms: C3'_925  and  O3'_926 
REMARK       I    between atoms: O3'_926  and  P_927 
REMARK       I    between atoms: P_927  and  O5'_930 
REMARK       I    between atoms: O5'_930  and  C5'_931 
REMARK       I    between atoms: C5'_931  and  C4'_932 
REMARK       I    between atoms: C1'_934  and  N9_935 
REMARK       I    between atoms: C2_938  and  N2_939 
REMARK   76  A    between atoms: C2'_949  and  O2'_950 
REMARK   77  A    between atoms: C3'_952  and  O3'_953 
REMARK   78  A    between atoms: O3'_953  and  P_954 
REMARK   79  A    between atoms: P_954  and  O5'_957 
REMARK   80  A    between atoms: O5'_957  and  C5'_958 
REMARK   81  A    between atoms: C5'_958  and  C4'_959 
REMARK       I    between atoms: C1'_961  and  N9_962 
REMARK       I    between atoms: C2_965  and  N2_966 
REMARK       I    between atoms: C2'_976  and  O2'_977 
REMARK   82  A    between atoms: C3'_979  and  O3'_980 
REMARK   83  A    between atoms: O3'_980  and  P_981 
REMARK   84  A    between atoms: P_981  and  O5'_984 
REMARK   85  A    between atoms: O5'_984  and  C5'_985 
REMARK   86  A    between atoms: C5'_985  and  C4'_986 
REMARK       I    between atoms: C1'_988  and  N9_989 
REMARK       I    between atoms: C6_994  and  N6_995 
REMARK       I    between atoms: C2'_1001  and  O2'_1002 
REMARK       I    between atoms: C3'_1004  and  O3'_1005 
REMARK       I    between atoms: O3'_1005  and  P_1006 
REMARK       I    between atoms: P_1006  and  O5'_1009 
REMARK       I    between atoms: O5'_1009  and  C5'_1010 
REMARK       I    between atoms: C5'_1010  and  C4'_1011 
REMARK       I    between atoms: C1'_1013  and  N9_1014 
REMARK       I    between atoms: C6_1019  and  N6_1020 
REMARK       I    between atoms: C2'_1026  and  O2'_1027 
REMARK       I    between atoms: C3'_1029  and  O3'_1030 
REMARK       I    between atoms: O3'_1030  and  P_1031 
REMARK       I    between atoms: P_1031  and  O5'_1034 
REMARK       I    between atoms: O5'_1034  and  C5'_1035 
REMARK       I    between atoms: C5'_1035  and  C4'_1036 
REMARK       I    between atoms: C1'_1038  and  N1_1039 
REMARK       I    between atoms: C2'_1048  and  O2'_1049 
REMARK       I    between atoms: C3'_1051  and  O3'_1052 
REMARK       I    between atoms: O3'_1052  and  P_1053 
REMARK       I    between atoms: P_1053  and  O5'_1056 
REMARK       I    between atoms: O5'_1056  and  C5'_1057 
REMARK       I    between atoms: C5'_1057  and  C4'_1058 
REMARK       I    between atoms: C1'_1060  and  N1_1061 
REMARK       I    between atoms: C4_1066  and  N4_1067 
REMARK       I    between atoms: C2'_1071  and  O2'_1072 
REMARK       I    between atoms: C3'_1074  and  O3'_1075 
REMARK       I    between atoms: O3'_1075  and  P_1076 
REMARK       I    between atoms: P_1076  and  O5'_1079 
REMARK       I    between atoms: O5'_1079  and  C5'_1080 
REMARK       I    between atoms: C5'_1080  and  C4'_1081 
REMARK       I    between atoms: C1'_1083  and  N9_1084 
REMARK       I    between atoms: C6_1089  and  N6_1090 
REMARK       I    between atoms: C2'_1096  and  O2'_1097 
REMARK       I    between atoms: C3'_1099  and  O3'_1100 
REMARK       I    between atoms: O3'_1100  and  P_1101 
REMARK       I    between atoms: P_1101  and  O5'_1104 
REMARK       I    between atoms: O5'_1104  and  C5'_1105 
REMARK       I    between atoms: C5'_1105  and  C4'_1106 
REMARK       I    between atoms: C1'_1108  and  N1_1109 
REMARK       I    between atoms: C4_1114  and  N4_1115 
REMARK       I    between atoms: C2'_1119  and  O2'_1120 
REMARK       I    between atoms: C3'_1122  and  O3'_1123 
REMARK       I    between atoms: O3'_1123  and  P_1124 
REMARK       I    between atoms: P_1124  and  O5'_1127 
REMARK       I    between atoms: O5'_1127  and  C5'_1128 
REMARK       I    between atoms: C5'_1128  and  C4'_1129 
REMARK       I    between atoms: C1'_1131  and  N9_1132 
REMARK       I    between atoms: C2_1135  and  N2_1136 
REMARK       I    between atoms: C2'_1146  and  O2'_1147 
REMARK       I    between atoms: C3'_1149  and  O3'_1150 
REMARK   87  A    between atoms: O3'_1150  and  P_1151 
REMARK   88  A    between atoms: P_1151  and  O5'_1154 
REMARK   89  A    between atoms: O5'_1154  and  C5'_1155 
REMARK   90  A    between atoms: C5'_1155  and  C4'_1156 
REMARK       I    between atoms: C1'_1158  and  N1_1159 
REMARK       I    between atoms: C2'_1168  and  O2'_1169 
REMARK   91  A    between atoms: C3'_1171  and  O3'_1172 
REMARK   92  A    between atoms: O3'_1172  and  P_1173 
REMARK   93  A    between atoms: P_1173  and  O5'_1176 
REMARK   94  A    between atoms: O5'_1176  and  C5'_1177 
REMARK   95  A    between atoms: C5'_1177  and  C4'_1178 
REMARK       I    between atoms: C1'_1180  and  N1_1181 
REMARK       I    between atoms: C4_1186  and  N4_1187 
REMARK       I    between atoms: C2'_1191  and  O2'_1192 
REMARK   96  A    between atoms: C3'_1194  and  O3'_1195 
REMARK       I    between atoms: O3'_1195  and  P_1196 
REMARK       I    between atoms: P_1196  and  O5'_1199 
REMARK       I    between atoms: O5'_1199  and  C5'_1200 
REMARK       I    between atoms: C5'_1200  and  C4'_1201 
REMARK       I    between atoms: C1'_1203  and  N9_1204 
REMARK       I    between atoms: C2_1207  and  N2_1208 
REMARK       I    between atoms: C2'_1218  and  O2'_1219 
REMARK       I    between atoms: C3'_1221  and  O3'_1222 
REMARK       I    between atoms: O3'_1222  and  P_1223 
REMARK       I    between atoms: P_1223  and  O5'_1226 
REMARK       I    between atoms: O5'_1226  and  C5'_1227 
REMARK       I    between atoms: C5'_1227  and  C4'_1228 
REMARK       I    between atoms: C1'_1230  and  N9_1231 
REMARK       I    between atoms: C2_1234  and  N2_1235 
REMARK       I    between atoms: C2'_1245  and  O2'_1246 
REMARK       I    between atoms: C3'_1248  and  O3'_1249 
REMARK       I    between atoms: O3'_1249  and  P_1250 
REMARK       I    between atoms: P_1250  and  O5'_1253 
REMARK       I    between atoms: O5'_1253  and  C5'_1254 
REMARK       I    between atoms: C5'_1254  and  C4'_1255 
REMARK       I    between atoms: C1'_1257  and  N9_1258 
REMARK       I    between atoms: C2_1261  and  N2_1262 
REMARK       I    between atoms: C2'_1272  and  O2'_1273 
REMARK       I    between atoms: C3'_1275  and  O3'_1276 
REMARK       I    between atoms: O3'_1276  and  P_1277 
REMARK       I    between atoms: P_1277  and  O5'_1280 
REMARK       I    between atoms: O5'_1280  and  C5'_1281 
REMARK       I    between atoms: C5'_1281  and  C4'_1282 
REMARK       I    between atoms: C1'_1284  and  N9_1285 
REMARK       I    between atoms: C2_1288  and  N2_1289 
REMARK       I    between atoms: C2'_1299  and  O2'_1300 
REMARK       I    between atoms: C3'_1302  and  O3'_1303 
REMARK       I    between atoms: O3'_1303  and  P_1304 
REMARK       I    between atoms: P_1304  and  O5'_1307 
REMARK       I    between atoms: O5'_1307  and  C5'_1308 
REMARK       I    between atoms: C5'_1308  and  C4'_1309 
REMARK       I    between atoms: C1'_1311  and  N1_1312 
REMARK       I    between atoms: C2'_1321  and  O2'_1322 
REMARK   97  A    between atoms: C3'_1324  and  O3'_1325 
REMARK   98  A    between atoms: O3'_1325  and  P_1326 
REMARK   99  A    between atoms: P_1326  and  O5'_1329 
REMARK  100  A    between atoms: O5'_1329  and  C5'_1330 
REMARK  101  A    between atoms: C5'_1330  and  C4'_1331 
REMARK       I    between atoms: C1'_1333  and  N1_1334 
REMARK       I    between atoms: C4_1339  and  N4_1340 
REMARK  102  A    between atoms: C2'_1344  and  O2'_1345 
REMARK  103  A    between atoms: C3'_1347  and  O3'_1348 
REMARK  104  A    between atoms: O3'_1348  and  P_1349 
REMARK       I    between atoms: P_1349  and  O5'_1352 
REMARK       I    between atoms: O5'_1352  and  C5'_1353 
REMARK       I    between atoms: C5'_1353  and  C4'_1354 
REMARK       I    between atoms: C1'_1356  and  N9_1357 
REMARK       I    between atoms: C6_1362  and  N6_1363 
REMARK       I    between atoms: C2'_1369  and  O2'_1370 
REMARK       I    between atoms: C3'_1372  and  O3'_1373 
ROOT
ATOM      1 'HO5   G A   1     -39.107  18.765  35.050  1.00  0.00     0.209 HD
ATOM      2  O5'   G A   1     -38.474  18.909  34.341  1.00  0.00    -0.398 OA
ATOM      3  C5'   G A   1     -37.298  19.461  34.939  1.00  0.00     0.198 C 
ATOM      4  C4'   G A   1     -37.144  18.992  36.369  1.00  0.00     0.180 C 
ATOM      5  O4'   G A   1     -38.392  18.377  36.804  1.00  0.00    -0.353 OA
ATOM      6  C1'   G A   1     -38.115  17.173  37.498  1.00  0.00     0.262 C 
ATOM      7  N9    G A   1     -38.529  16.050  36.662  1.00  0.00    -0.293 N 
ATOM      8  C4    G A   1     -38.605  14.733  37.045  1.00  0.00     0.187 A 
ATOM      9  N3    G A   1     -38.313  14.245  38.269  1.00  0.00    -0.044 NA
ATOM     10  C2    G A   1     -38.482  12.937  38.330  1.00  0.00     0.703 A 
ATOM     11  N2    G A   1     -38.239  12.291  39.473  1.00  0.00    -0.233 N 
ATOM     12  H21   G A   1     -37.927  12.810  40.280  1.00  0.00     0.174 HD
ATOM     13  H22   G A   1     -38.370  11.290  39.529  1.00  0.00     0.174 HD
ATOM     14  N1    G A   1     -38.904  12.167  37.277  1.00  0.00    -0.153 N 
ATOM     15  H1    G A   1     -39.001  11.175  37.433  1.00  0.00     0.187 HD
ATOM     16  C6    G A   1     -39.206  12.645  36.008  1.00  0.00     0.292 A 
ATOM     17  O6    G A   1     -39.574  11.859  35.126  1.00  0.00    -0.265 OA
ATOM     18  C5    G A   1     -39.032  14.051  35.925  1.00  0.00     0.173 A 
ATOM     19  N7    G A   1     -39.223  14.921  34.861  1.00  0.00    -0.234 NA
ATOM     20  C8    G A   1     -38.914  16.092  35.345  1.00  0.00     0.214 A 
ATOM     21  C2'   G A   1     -36.621  17.180  37.811  1.00  0.00     0.199 C 
ATOM     22  O2'   G A   1     -36.407  17.918  39.000  1.00  0.00    -0.388 OA
ATOM     23 'HO2   G A   1     -35.464  18.060  39.073  1.00  0.00     0.210 HD
ATOM     24  C3'   G A   1     -36.084  17.920  36.594  1.00  0.00     0.198 C 
ATOM     25  O3'   G A   1     -34.797  18.489  36.822  1.00  0.00    -0.279 OA
ATOM     26  P     A A   2     -33.485  17.745  36.263  1.00  0.00     0.408 P 
ATOM     27  OP1   A A   2     -32.327  18.635  36.534  1.00  0.00    -0.624 OA
ATOM     28  OP2   A A   2     -33.754  17.297  34.873  1.00  0.00    -0.624 OA
ATOM     29  O5'   A A   2     -33.349  16.454  37.187  1.00  0.00    -0.287 OA
ATOM     30  C5'   A A   2     -33.085  16.574  38.582  1.00  0.00     0.216 C 
ATOM     31  C4'   A A   2     -32.999  15.206  39.218  1.00  0.00     0.180 C 
ATOM     32  O4'   A A   2     -34.320  14.598  39.214  1.00  0.00    -0.353 OA
ATOM     33  C1'   A A   2     -34.204  13.209  38.956  1.00  0.00     0.262 C 
ATOM     34  N9    A A   2     -34.875  12.916  37.689  1.00  0.00    -0.294 N 
ATOM     35  C4    A A   2     -35.296  11.682  37.259  1.00  0.00     0.167 A 
ATOM     36  N3    A A   2     -35.179  10.509  37.907  1.00  0.00    -0.222 NA
ATOM     37  C2    A A   2     -35.699   9.520  37.185  1.00  0.00     0.237 A 
ATOM     38  N1    A A   2     -36.278   9.566  35.977  1.00  0.00    -0.222 NA
ATOM     39  C6    A A   2     -36.378  10.759  35.354  1.00  0.00     0.155 A 
ATOM     40  N6    A A   2     -36.955  10.804  34.152  1.00  0.00    -0.382 N 
ATOM     41  H61   A A   2     -37.040  11.686  33.669  1.00  0.00     0.157 HD
ATOM     42  H62   A A   2     -37.306   9.958  33.725  1.00  0.00     0.157 HD
ATOM     43  C5    A A   2     -35.865  11.888  36.016  1.00  0.00     0.149 A 
ATOM     44  N7    A A   2     -35.806  13.231  35.668  1.00  0.00    -0.236 NA
ATOM     45  C8    A A   2     -35.213  13.795  36.690  1.00  0.00     0.214 A 
ATOM     46  C2'   A A   2     -32.714  12.870  38.948  1.00  0.00     0.199 C 
ATOM     47  O2'   A A   2     -32.314  12.550  40.268  1.00  0.00    -0.388 OA
ATOM     48 'HO2   A A   2     -31.410  12.852  40.362  1.00  0.00     0.210 HD
ATOM     49  C3'   A A   2     -32.119  14.196  38.496  1.00  0.00     0.198 C 
ATOM     50  O3'   A A   2     -30.748  14.333  38.860  1.00  0.00    -0.279 OA
ATOM     51  P     C A   3     -29.597  13.957  37.799  1.00  0.00     0.408 P 
ATOM     52  OP1   C A   3     -28.303  14.393  38.383  1.00  0.00    -0.624 OA
ATOM     53  OP2   C A   3     -30.004  14.459  36.461  1.00  0.00    -0.624 OA
ATOM     54  O5'   C A   3     -29.614  12.364  37.760  1.00  0.00    -0.287 OA
ATOM     55  C5'   C A   3     -29.188  11.598  38.884  1.00  0.00     0.216 C 
ATOM     56  C4'   C A   3     -29.586  10.149  38.714  1.00  0.00     0.180 C 
ATOM     57  O4'   C A   3     -31.017  10.066  38.473  1.00  0.00    -0.353 OA
ATOM     58  C1'   C A   3     -31.290   8.976  37.607  1.00  0.00     0.264 C 
ATOM     59  N1    C A   3     -31.946   9.488  36.393  1.00  0.00    -0.278 N 
ATOM     60  C6    C A   3     -31.928  10.822  36.092  1.00  0.00     0.102 A 
ATOM     61  C2    C A   3     -32.588   8.583  35.542  1.00  0.00     0.352 A 
ATOM     62  O2    C A   3     -32.593   7.380  35.837  1.00  0.00    -0.244 OA
ATOM     63  N3    C A   3     -33.187   9.039  34.421  1.00  0.00    -0.177 NA
ATOM     64  C4    C A   3     -33.163  10.342  34.136  1.00  0.00     0.128 A 
ATOM     65  N4    C A   3     -33.765  10.744  33.017  1.00  0.00    -0.384 N 
ATOM     66  H41   C A   3     -33.770  11.721  32.763  1.00  0.00     0.157 HD
ATOM     67  H42   C A   3     -34.215  10.064  32.421  1.00  0.00     0.157 HD
ATOM     68  C5    C A   3     -32.520  11.290  34.985  1.00  0.00     0.067 A 
ATOM     69  C2'   C A   3     -29.960   8.276  37.325  1.00  0.00     0.199 C 
ATOM     70  O2'   C A   3     -29.764   7.267  38.298  1.00  0.00    -0.388 OA
ATOM     71 'HO2   C A   3     -28.943   7.469  38.749  1.00  0.00     0.210 HD
ATOM     72  C3'   C A   3     -28.983   9.427  37.517  1.00  0.00     0.198 C 
ATOM     73  O3'   C A   3     -27.653   8.978  37.766  1.00  0.00    -0.279 OA
ATOM     74  P     C A   4     -26.664   8.682  36.531  1.00  0.00     0.408 P 
ATOM     75  OP1   C A   4     -25.286   8.584  37.070  1.00  0.00    -0.624 OA
ATOM     76  OP2   C A   4     -26.960   9.658  35.451  1.00  0.00    -0.624 OA
ATOM     77  O5'   C A   4     -27.103   7.236  36.018  1.00  0.00    -0.287 OA
ATOM     78  C5'   C A   4     -27.294   6.156  36.931  1.00  0.00     0.216 C 
ATOM     79  C4'   C A   4     -27.660   4.894  36.184  1.00  0.00     0.180 C 
ATOM     80  O4'   C A   4     -29.084   4.927  35.879  1.00  0.00    -0.353 OA
ATOM     81  C1'   C A   4     -29.301   4.480  34.552  1.00  0.00     0.264 C 
ATOM     82  N1    C A   4     -29.734   5.629  33.737  1.00  0.00    -0.278 N 
ATOM     83  C6    C A   4     -29.345   6.899  34.057  1.00  0.00     0.102 A 
ATOM     84  C2    C A   4     -30.548   5.401  32.623  1.00  0.00     0.352 A 
ATOM     85  O2    C A   4     -30.890   4.240  32.355  1.00  0.00    -0.244 OA
ATOM     86  N3    C A   4     -30.943   6.450  31.867  1.00  0.00    -0.177 NA
ATOM     87  C4    C A   4     -30.558   7.686  32.189  1.00  0.00     0.128 A 
ATOM     88  N4    C A   4     -30.969   8.687  31.413  1.00  0.00    -0.384 N 
ATOM     89  H41   C A   4     -30.699   9.638  31.618  1.00  0.00     0.157 HD
ATOM     90  H42   C A   4     -31.554   8.492  30.611  1.00  0.00     0.157 HD
ATOM     91  C5    C A   4     -29.730   7.948  33.319  1.00  0.00     0.067 A 
ATOM     92  C2'   C A   4     -27.993   3.850  34.081  1.00  0.00     0.199 C 
ATOM     93  O2'   C A   4     -27.953   2.503  34.515  1.00  0.00    -0.388 OA
ATOM     94 'HO2   C A   4     -27.029   2.271  34.613  1.00  0.00     0.210 HD
ATOM     95  C3'   C A   4     -26.982   4.706  34.831  1.00  0.00     0.198 C 
ATOM     96  O3'   C A   4     -25.713   4.068  34.952  1.00  0.00    -0.279 OA
ATOM     97  P     T A   5     -24.452   4.635  34.131  1.00  0.00     0.408 P 
ATOM     98  OP1   T A   5     -23.252   3.871  34.561  1.00  0.00    -0.624 OA
ATOM     99  OP2   T A   5     -24.454   6.117  34.240  1.00  0.00    -0.624 OA
ATOM    100  O5'   T A   5     -24.771   4.254  32.615  1.00  0.00    -0.287 OA
ATOM    101  C5'   T A   5     -24.470   2.955  32.100  1.00  0.00     0.216 C 
ATOM    102  C4'   T A   5     -25.614   2.453  31.246  1.00  0.00     0.180 C 
ATOM    103  O4'   T A   5     -26.849   3.080  31.689  1.00  0.00    -0.353 OA
ATOM    104  C1'   T A   5     -27.653   3.406  30.568  1.00  0.00     0.264 C 
ATOM    105  N1    T A   5     -27.792   4.869  30.504  1.00  0.00    -0.280 N 
ATOM    106  C6    T A   5     -27.136   5.689  31.396  1.00  0.00     0.104 A 
ATOM    107  C2    T A   5     -28.605   5.399  29.517  1.00  0.00     0.331 A 
ATOM    108  O2    T A   5     -29.205   4.710  28.709  1.00  0.00    -0.246 OA
ATOM    109  N3    T A   5     -28.691   6.767  29.510  1.00  0.00    -0.275 N 
ATOM    110  H3    T A   5     -29.287   7.180  28.811  1.00  0.00     0.173 HD
ATOM    111  C4    T A   5     -28.066   7.641  30.368  1.00  0.00     0.250 A 
ATOM    112  O4    T A   5     -28.238   8.852  30.226  1.00  0.00    -0.268 OA
ATOM    113  C5    T A   5     -27.249   7.020  31.360  1.00  0.00     0.092 A 
ATOM    114  C2'   T A   5     -26.987   2.794  29.336  1.00  0.00     0.199 C 
ATOM    115  O2'   T A   5     -27.477   1.477  29.165  1.00  0.00    -0.388 OA
ATOM    116 'HO2   T A   5     -26.717   0.894  29.189  1.00  0.00     0.210 HD
ATOM    117  C3'   T A   5     -25.524   2.791  29.763  1.00  0.00     0.198 C 
ATOM    118  O3'   T A   5     -24.752   1.828  29.049  1.00  0.00    -0.279 OA
ATOM    119  P     C A   6     -23.405   2.279  28.292  1.00  0.00     0.408 P 
ATOM    120  OP1   C A   6     -22.697   1.040  27.880  1.00  0.00    -0.624 OA
ATOM    121  OP2   C A   6     -22.703   3.275  29.142  1.00  0.00    -0.624 OA
ATOM    122  O5'   C A   6     -23.931   3.023  26.982  1.00  0.00    -0.287 OA
ATOM    123  C5'   C A   6     -23.259   2.886  25.727  1.00  0.00     0.216 C 
ATOM    124  C4'   C A   6     -24.265   2.694  24.610  1.00  0.00     0.180 C 
ATOM    125  O4'   C A   6     -25.600   2.585  25.191  1.00  0.00    -0.353 OA
ATOM    126  C1'   C A   6     -26.487   3.446  24.501  1.00  0.00     0.264 C 
ATOM    127  N1    C A   6     -26.709   4.651  25.319  1.00  0.00    -0.278 N 
ATOM    128  C6    C A   6     -26.232   4.734  26.597  1.00  0.00     0.102 A 
ATOM    129  C2    C A   6     -27.404   5.720  24.756  1.00  0.00     0.352 A 
ATOM    130  O2    C A   6     -27.849   5.609  23.603  1.00  0.00    -0.244 OA
ATOM    131  N3    C A   6     -27.581   6.846  25.476  1.00  0.00    -0.177 NA
ATOM    132  C4    C A   6     -27.105   6.927  26.716  1.00  0.00     0.128 A 
ATOM    133  N4    C A   6     -27.297   8.067  27.379  1.00  0.00    -0.384 N 
ATOM    134  H41   C A   6     -26.958   8.191  28.322  1.00  0.00     0.157 HD
ATOM    135  H42   C A   6     -27.790   8.819  26.915  1.00  0.00     0.157 HD
ATOM    136  C5    C A   6     -26.407   5.844  27.328  1.00  0.00     0.067 A 
ATOM    137  C2'   C A   6     -25.820   3.751  23.166  1.00  0.00     0.199 C 
ATOM    138  O2'   C A   6     -26.027   2.662  22.286  1.00  0.00    -0.388 OA
ATOM    139 'HO2   C A   6     -25.171   2.269  22.123  1.00  0.00     0.210 HD
ATOM    140  C3'   C A   6     -24.370   3.845  23.613  1.00  0.00     0.198 C 
ATOM    141  O3'   C A   6     -23.464   3.719  22.520  1.00  0.00    -0.279 OA
ATOM    142  P     G A   7     -22.617   5.000  22.043  1.00  0.00     0.408 P 
ATOM    143  OP1   G A   7     -23.494   6.192  22.185  1.00  0.00    -0.624 OA
ATOM    144  OP2   G A   7     -21.318   4.957  22.758  1.00  0.00    -0.624 OA
ATOM    145  O5'   G A   7     -22.363   4.752  20.488  1.00  0.00    -0.287 OA
ATOM    146  C5'   G A   7     -22.262   5.844  19.567  1.00  0.00     0.216 C 
ATOM    147  C4'   G A   7     -20.842   5.973  19.060  1.00  0.00     0.180 C 
ATOM    148  O4'   G A   7     -20.495   7.385  19.016  1.00  0.00    -0.353 OA
ATOM    149  C1'   G A   7     -19.477   7.637  19.953  1.00  0.00     0.262 C 
ATOM    150  N9    G A   7     -20.116   8.027  21.206  1.00  0.00    -0.293 N 
ATOM    151  C4    G A   7     -21.049   9.020  21.348  1.00  0.00     0.187 A 
ATOM    152  N3    G A   7     -21.515   9.808  20.359  1.00  0.00    -0.044 NA
ATOM    153  C2    G A   7     -22.409  10.670  20.796  1.00  0.00     0.703 A 
ATOM    154  N2    G A   7     -22.964  11.522  19.937  1.00  0.00    -0.233 N 
ATOM    155  H21   G A   7     -22.688  11.492  18.967  1.00  0.00     0.174 HD
ATOM    156  H22   G A   7     -23.657  12.188  20.250  1.00  0.00     0.174 HD
ATOM    157  N1    G A   7     -22.822  10.755  22.101  1.00  0.00    -0.153 N 
ATOM    158  H1    G A   7     -23.516  11.452  22.330  1.00  0.00     0.187 HD
ATOM    159  C6    G A   7     -22.358   9.953  23.139  1.00  0.00     0.292 A 
ATOM    160  O6    G A   7     -22.801  10.111  24.283  1.00  0.00    -0.265 OA
ATOM    161  C5    G A   7     -21.388   9.020  22.683  1.00  0.00     0.173 A 
ATOM    162  N7    G A   7     -20.675   8.048  23.372  1.00  0.00    -0.234 NA
ATOM    163  C8    G A   7     -19.933   7.488  22.456  1.00  0.00     0.214 A 
ATOM    164  C2'   G A   7     -18.664   6.349  19.998  1.00  0.00     0.199 C 
ATOM    165  O2'   G A   7     -17.846   6.302  18.845  1.00  0.00    -0.388 OA
ATOM    166 'HO2   G A   7     -18.429   6.303  18.083  1.00  0.00     0.210 HD
ATOM    167  C3'   G A   7     -19.780   5.308  19.938  1.00  0.00     0.198 C 
ENDROOT
BRANCH 167 168
ATOM    168  O3'   G A   7     -19.363   4.071  19.374  1.00  0.00    -0.279 OA
BRANCH 168 169
ATOM    169  P     T A   8     -19.306   2.755  20.299  1.00  0.00     0.408 P 
ATOM    170  OP2   T A   8     -18.217   1.878  19.798  1.00  0.00    -0.624 OA
ATOM    171  OP1   T A   8     -20.687   2.220  20.410  1.00  0.00    -0.624 OA
BRANCH 169 172
ATOM    172  O5'   T A   8     -18.876   3.307  21.730  1.00  0.00    -0.287 OA
BRANCH 172 173
ATOM    173  C5'   T A   8     -18.272   2.447  22.694  1.00  0.00     0.216 C 
BRANCH 173 174
ATOM    174  C4'   T A   8     -18.952   2.609  24.032  1.00  0.00     0.180 C 
ATOM    175  O4'   T A   8     -19.244   1.292  24.574  1.00  0.00    -0.353 OA
ATOM    176  C1'   T A   8     -18.989   1.280  25.968  1.00  0.00     0.264 C 
ATOM    177  C2'   T A   8     -18.709   2.723  26.390  1.00  0.00     0.199 C 
ATOM    178  N1    T A   8     -17.870   0.363  26.229  1.00  0.00    -0.280 N 
ATOM    179  C3'   T A   8     -18.117   3.291  25.106  1.00  0.00     0.198 C 
ATOM    180  C6    T A   8     -16.750   0.359  25.429  1.00  0.00     0.104 A 
ATOM    181  C2    T A   8     -17.976  -0.496  27.308  1.00  0.00     0.331 A 
ATOM    182  C5    T A   8     -15.714  -0.453  25.653  1.00  0.00     0.092 A 
ATOM    183  C4    T A   8     -15.744  -1.366  26.751  1.00  0.00     0.250 A 
ATOM    184  N3    T A   8     -16.895  -1.317  27.504  1.00  0.00    -0.275 N 
ATOM    185  O4    T A   8     -14.844  -2.142  27.071  1.00  0.00    -0.268 OA
ATOM    186  H3    T A   8     -16.947  -1.962  28.276  1.00  0.00     0.173 HD
ATOM    187  O2    T A   8     -18.952  -0.528  28.038  1.00  0.00    -0.246 OA
BRANCH 177 188
ATOM    188  O2'   T A   8     -19.938   3.348  26.711  1.00  0.00    -0.388 OA
ATOM    189 'HO2   T A   8     -20.129   3.962  25.999  1.00  0.00     0.210 HD
ENDBRANCH 177 188
BRANCH 179 190
ATOM    190  O3'   T A   8     -18.228   4.710  25.026  1.00  0.00    -0.279 OA
BRANCH 190 191
ATOM    191  P     G A   9     -16.903   5.616  24.899  1.00  0.00     0.408 P 
ATOM    192  OP1   G A   9     -17.140   6.585  23.800  1.00  0.00    -0.624 OA
ATOM    193  OP2   G A   9     -15.703   4.741  24.859  1.00  0.00    -0.624 OA
BRANCH 191 194
ATOM    194  O5'   G A   9     -16.875   6.433  26.267  1.00  0.00    -0.287 OA
BRANCH 194 195
ATOM    195  C5'   G A   9     -17.657   6.015  27.386  1.00  0.00     0.216 C 
BRANCH 195 196
ATOM    196  C4'   G A   9     -16.844   6.105  28.655  1.00  0.00     0.180 C 
ATOM    197  O4'   G A   9     -16.056   4.896  28.806  1.00  0.00    -0.353 OA
ATOM    198  C1'   G A   9     -14.828   5.207  29.441  1.00  0.00     0.262 C 
ATOM    199  C2'   G A   9     -14.825   6.707  29.742  1.00  0.00     0.199 C 
ATOM    200  N9    G A   9     -13.738   4.793  28.565  1.00  0.00    -0.293 N 
ATOM    201  C3'   G A   9     -15.810   7.220  28.699  1.00  0.00     0.198 C 
ATOM    202  O3'   G A   9     -16.394   8.467  29.069  1.00  0.00    -0.279 OA
ATOM    203  P     G A  10     -15.911   9.820  28.345  1.00  0.00     0.408 P 
ATOM    204  OP2   G A  10     -16.176   9.692  26.890  1.00  0.00    -0.624 OA
ATOM    205  OP1   G A  10     -16.502  10.954  29.101  1.00  0.00    -0.624 OA
ATOM    206  O5'   G A  10     -14.333   9.842  28.568  1.00  0.00    -0.287 OA
ATOM    207  C8    G A   9     -13.580   5.100  27.236  1.00  0.00     0.214 A 
ATOM    208  C4    G A   9     -12.660   4.017  28.914  1.00  0.00     0.187 A 
ATOM    209  N7    G A   9     -12.497   4.590  26.714  1.00  0.00    -0.234 NA
ATOM    210  C5    G A   9     -11.904   3.903  27.767  1.00  0.00     0.173 A 
ATOM    211  C6    G A   9     -10.702   3.147  27.816  1.00  0.00     0.292 A 
ATOM    212  N1    G A   9     -10.481   2.620  29.083  1.00  0.00    -0.153 N 
ATOM    213  O6    G A   9      -9.891   2.927  26.912  1.00  0.00    -0.265 OA
ATOM    214  H1    G A   9      -9.646   2.068  29.204  1.00  0.00     0.187 HD
ATOM    215  C2    G A   9     -11.304   2.795  30.166  1.00  0.00     0.703 A 
ATOM    216  N3    G A   9     -12.422   3.495  30.138  1.00  0.00    -0.044 NA
ATOM    217  N2    G A   9     -10.923   2.205  31.300  1.00  0.00    -0.233 N 
ATOM    218  H22   G A   9     -10.076   1.657  31.343  1.00  0.00     0.174 HD
ATOM    219  H21   G A   9     -11.505   2.310  32.119  1.00  0.00     0.174 HD
BRANCH 199 220
ATOM    220  O2'   G A   9     -15.319   6.912  31.053  1.00  0.00    -0.388 OA
ATOM    221 'HO2   G A   9     -15.525   7.845  31.114  1.00  0.00     0.210 HD
ENDBRANCH 199 220
BRANCH 206 222
ATOM    222  C5'   G A  10     -13.775  10.054  29.865  1.00  0.00     0.216 C 
BRANCH 222 223
ATOM    223  C4'   G A  10     -12.532  10.912  29.772  1.00  0.00     0.180 C 
ATOM    224  O4'   G A  10     -12.261  11.518  31.062  1.00  0.00    -0.353 OA
ATOM    225  C1'   G A  10     -10.862  11.685  31.224  1.00  0.00     0.262 C 
ATOM    226  C2'   G A  10     -10.174  11.117  29.979  1.00  0.00     0.199 C 
ATOM    227  C3'   G A  10     -11.244  10.170  29.443  1.00  0.00     0.198 C 
BRANCH 225 228
ATOM    228  N9    G A  10     -10.461  11.034  32.468  1.00  0.00    -0.293 N 
ATOM    229  C4    G A  10     -11.007  11.239  33.712  1.00  0.00     0.187 A 
ATOM    230  N3    G A  10     -12.015  12.087  34.005  1.00  0.00    -0.044 NA
ATOM    231  C5    G A  10     -10.309  10.407  34.563  1.00  0.00     0.173 A 
ATOM    232  C2    G A  10     -12.321  12.066  35.289  1.00  0.00     0.703 A 
ATOM    233  N1    G A  10     -11.691  11.275  36.217  1.00  0.00    -0.153 N 
ATOM    234  N2    G A  10     -13.299  12.849  35.752  1.00  0.00    -0.233 N 
ATOM    235  C6    G A  10     -10.651  10.396  35.942  1.00  0.00     0.292 A 
ATOM    236  H1    G A  10     -12.009  11.340  37.171  1.00  0.00     0.187 HD
ATOM    237  O6    G A  10     -10.151   9.729  36.857  1.00  0.00    -0.265 OA
ATOM    238  H21   G A  10     -13.794  13.451  35.111  1.00  0.00     0.174 HD
ATOM    239  H22   G A  10     -13.542  12.838  36.732  1.00  0.00     0.174 HD
ATOM    240  N7    G A  10      -9.342   9.692  33.867  1.00  0.00    -0.234 NA
ATOM    241  C8    G A  10      -9.469  10.096  32.633  1.00  0.00     0.214 A 
ENDBRANCH 225 228
BRANCH 226 242
ATOM    242  O2'   G A  10      -9.933  12.177  29.073  1.00  0.00    -0.388 OA
ATOM    243 'HO2   G A  10      -8.994  12.356  29.107  1.00  0.00     0.210 HD
ENDBRANCH 226 242
BRANCH 227 244
ATOM    244  O3'   G A  10     -11.119   9.940  28.040  1.00  0.00    -0.279 OA
BRANCH 244 245
ATOM    245  P     C A  11     -11.678  11.028  26.995  1.00  0.00     0.408 P 
ATOM    246  OP2   C A  11     -12.455  10.324  25.944  1.00  0.00    -0.624 OA
ATOM    247  OP1   C A  11     -12.326  12.105  27.788  1.00  0.00    -0.624 OA
BRANCH 245 248
ATOM    248  O5'   C A  11     -10.362  11.627  26.327  1.00  0.00    -0.287 OA
BRANCH 248 249
ATOM    249  C5'   C A  11     -10.358  12.937  25.762  1.00  0.00     0.216 C 
BRANCH 249 250
ATOM    250  C4'   C A  11      -9.004  13.247  25.168  1.00  0.00     0.180 C 
ATOM    251  O4'   C A  11      -8.805  12.418  23.994  1.00  0.00    -0.353 OA
ATOM    252  C1'   C A  11      -8.029  13.125  23.041  1.00  0.00     0.264 C 
ATOM    253  C2'   C A  11      -7.706  14.503  23.625  1.00  0.00     0.199 C 
ATOM    254  C3'   C A  11      -8.820  14.666  24.654  1.00  0.00     0.198 C 
BRANCH 252 255
ATOM    255  N1    C A  11      -8.782  13.185  21.778  1.00  0.00    -0.278 N 
ATOM    256  C2    C A  11      -8.148  13.695  20.644  1.00  0.00     0.352 A 
ATOM    257  O2    C A  11      -6.973  14.074  20.733  1.00  0.00    -0.244 OA
ATOM    258  N3    C A  11      -8.827  13.762  19.479  1.00  0.00    -0.177 NA
ATOM    259  C4    C A  11     -10.090  13.341  19.420  1.00  0.00     0.128 A 
ATOM    260  N4    C A  11     -10.718  13.427  18.248  1.00  0.00    -0.384 N 
ATOM    261  C5    C A  11     -10.764  12.812  20.559  1.00  0.00     0.067 A 
ATOM    262  H41   C A  11     -11.675  13.120  18.157  1.00  0.00     0.157 HD
ATOM    263  H42   C A  11     -10.228  13.803  17.448  1.00  0.00     0.157 HD
ATOM    264  C6    C A  11     -10.077  12.754  21.708  1.00  0.00     0.102 A 
ENDBRANCH 252 255
BRANCH 253 265
ATOM    265  O2'   C A  11      -6.437  14.438  24.247  1.00  0.00    -0.388 OA
ATOM    266 'HO2   C A  11      -6.172  15.338  24.434  1.00  0.00     0.210 HD
ENDBRANCH 253 265
BRANCH 254 267
ATOM    267  O3'   C A  11      -8.464  15.564  25.703  1.00  0.00    -0.279 OA
BRANCH 267 268
ATOM    268  P     G A  12      -7.725  15.006  27.018  1.00  0.00     0.408 P 
ATOM    269  OP2   G A  12      -7.267  13.617  26.754  1.00  0.00    -0.624 OA
ATOM    270  OP1   G A  12      -6.738  16.035  27.433  1.00  0.00    -0.624 OA
BRANCH 268 271
ATOM    271  O5'   G A  12      -8.878  14.965  28.120  1.00  0.00    -0.287 OA
BRANCH 271 272
ATOM    272  C5'   G A  12      -9.970  15.885  28.085  1.00  0.00     0.216 C 
BRANCH 272 273
ATOM    273  C4'   G A  12     -11.248  15.188  28.489  1.00  0.00     0.180 C 
ATOM    274  O4'   G A  12     -11.172  14.844  29.898  1.00  0.00    -0.353 OA
ATOM    275  C1'   G A  12     -12.450  14.981  30.494  1.00  0.00     0.262 C 
ATOM    276  N9    G A  12     -12.361  15.978  31.555  1.00  0.00    -0.293 N 
ATOM    277  C2'   G A  12     -13.439  15.354  29.388  1.00  0.00     0.199 C 
ATOM    278  C4    G A  12     -13.399  16.444  32.327  1.00  0.00     0.187 A 
ATOM    279  C8    G A  12     -11.236  16.641  31.982  1.00  0.00     0.214 A 
ATOM    280  N3    G A  12     -14.688  16.055  32.238  1.00  0.00    -0.044 NA
ATOM    281  C5    G A  12     -12.836  17.369  33.180  1.00  0.00     0.173 A 
ATOM    282  C2    G A  12     -15.452  16.680  33.114  1.00  0.00     0.703 A 
ATOM    283  N1    G A  12     -14.994  17.616  34.004  1.00  0.00    -0.153 N 
ATOM    284  N2    G A  12     -16.759  16.410  33.163  1.00  0.00    -0.233 N 
ATOM    285  C6    G A  12     -13.674  18.037  34.112  1.00  0.00     0.292 A 
ATOM    286  H1    G A  12     -15.665  18.035  34.631  1.00  0.00     0.187 HD
ATOM    287  O6    G A  12     -13.369  18.894  34.950  1.00  0.00    -0.265 OA
ATOM    288  H22   G A  12     -17.352  16.874  33.833  1.00  0.00     0.174 HD
ATOM    289  H21   G A  12     -17.147  15.727  32.528  1.00  0.00     0.174 HD
ATOM    290  N7    G A  12     -11.471  17.483  32.951  1.00  0.00    -0.234 NA
ATOM    291  C3'   G A  12     -12.516  16.024  28.376  1.00  0.00     0.198 C 
BRANCH 277 292
ATOM    292  O2'   G A  12     -14.001  14.166  28.864  1.00  0.00    -0.388 OA
ATOM    293 'HO2   G A  12     -13.838  13.475  29.506  1.00  0.00     0.210 HD
ENDBRANCH 277 292
BRANCH 291 294
ATOM    294  O3'   G A  12     -13.050  15.999  27.054  1.00  0.00    -0.279 OA
BRANCH 294 295
ATOM    295  P     T A  13     -13.440  17.378  26.324  1.00  0.00     0.408 P 
ATOM    296  OP2   T A  13     -12.194  18.147  26.079  1.00  0.00    -0.624 OA
ATOM    297  OP1   T A  13     -14.331  17.042  25.184  1.00  0.00    -0.624 OA
BRANCH 295 298
ATOM    298  O5'   T A  13     -14.298  18.163  27.414  1.00  0.00    -0.287 OA
BRANCH 298 299
ATOM    299  C5'   T A  13     -15.467  18.892  27.041  1.00  0.00     0.216 C 
BRANCH 299 300
ATOM    300  C4'   T A  13     -15.212  20.378  27.152  1.00  0.00     0.180 C 
ATOM    301  O4'   T A  13     -16.469  21.050  27.451  1.00  0.00    -0.353 OA
ATOM    302  C1'   T A  13     -16.250  22.063  28.417  1.00  0.00     0.264 C 
ATOM    303  N1    T A  13     -16.921  21.671  29.666  1.00  0.00    -0.280 N 
ATOM    304  C2'   T A  13     -14.739  22.225  28.561  1.00  0.00     0.199 C 
ATOM    305  C6    T A  13     -17.357  20.381  29.870  1.00  0.00     0.104 A 
ATOM    306  C2    T A  13     -17.095  22.643  30.633  1.00  0.00     0.331 A 
ATOM    307  C5    T A  13     -17.962  20.001  31.000  1.00  0.00     0.092 A 
ATOM    308  C4    T A  13     -18.175  20.948  32.049  1.00  0.00     0.250 A 
ATOM    309  O4    T A  13     -18.719  20.723  33.130  1.00  0.00    -0.268 OA
ATOM    310  N3    T A  13     -17.717  22.216  31.778  1.00  0.00    -0.275 N 
ATOM    311  H3    T A  13     -17.847  22.911  32.498  1.00  0.00     0.173 HD
ATOM    312  O2    T A  13     -16.728  23.794  30.490  1.00  0.00    -0.246 OA
ATOM    313  C3'   T A  13     -14.275  20.803  28.275  1.00  0.00     0.198 C 
ATOM    314  O2'   T A  13     -14.279  23.122  27.569  1.00  0.00    -0.388 OA
ATOM    315  O3'   T A  13     -12.908  20.746  27.878  1.00  0.00    -0.279 OA
ATOM    316  P     C A  14     -11.769  20.449  28.973  1.00  0.00     0.408 P 
ATOM    317  OP2   C A  14     -12.254  19.376  29.878  1.00  0.00    -0.624 OA
ATOM    318  OP1   C A  14     -10.488  20.271  28.243  1.00  0.00    -0.624 OA
ATOM    319  O5'   C A  14     -11.678  21.801  29.813  1.00  0.00    -0.287 OA
ATOM    320  C5'   C A  14     -11.139  22.990  29.236  1.00  0.00     0.216 C 
ATOM    321  C4'   C A  14     -11.290  24.151  30.193  1.00  0.00     0.180 C 
ATOM    322  O4'   C A  14     -12.691  24.298  30.548  1.00  0.00    -0.353 OA
ATOM    323  C3'   C A  14     -10.583  24.002  31.532  1.00  0.00     0.198 C 
ATOM    324  C1'   C A  14     -12.801  24.718  31.898  1.00  0.00     0.264 C 
ATOM    325  N1    C A  14     -13.558  23.698  32.644  1.00  0.00    -0.278 N 
ATOM    326  C2'   C A  14     -11.383  24.938  32.427  1.00  0.00     0.199 C 
ATOM    327  C6    C A  14     -13.741  22.444  32.129  1.00  0.00     0.102 A 
ATOM    328  C2    C A  14     -14.092  24.032  33.891  1.00  0.00     0.352 A 
ATOM    329  C5    C A  14     -14.434  21.516  32.800  1.00  0.00     0.067 A 
ATOM    330  C4    C A  14     -14.969  21.887  34.069  1.00  0.00     0.128 A 
ATOM    331  N3    C A  14     -14.793  23.106  34.581  1.00  0.00    -0.177 NA
ATOM    332  N4    C A  14     -15.669  21.008  34.784  1.00  0.00    -0.384 N 
ATOM    333  H42   C A  14     -16.041  21.280  35.683  1.00  0.00     0.157 HD
ATOM    334  H41   C A  14     -15.827  20.074  34.433  1.00  0.00     0.157 HD
ATOM    335  O2    C A  14     -13.909  25.174  34.339  1.00  0.00    -0.244 OA
ATOM    336  O2'   C A  14     -11.025  26.289  32.208  1.00  0.00    -0.388 OA
ATOM    337 'HO2   C A  14     -10.189  26.285  31.741  1.00  0.00     0.210 HD
ATOM    338  O3'   C A  14      -9.208  24.373  31.445  1.00  0.00    -0.279 OA
ATOM    339  P     T A  15      -8.174  23.881  32.576  1.00  0.00     0.408 P 
ATOM    340  OP2   T A  15      -8.430  22.444  32.853  1.00  0.00    -0.624 OA
ATOM    341  O5'   T A  15      -8.587  24.718  33.867  1.00  0.00    -0.287 OA
ATOM    342  OP1   T A  15      -6.818  24.316  32.153  1.00  0.00    -0.624 OA
ATOM    343  C5'   T A  15      -8.432  26.136  33.904  1.00  0.00     0.216 C 
ATOM    344  C4'   T A  15      -8.654  26.649  35.308  1.00  0.00     0.180 C 
ATOM    345  C3'   T A  15      -7.992  25.842  36.416  1.00  0.00     0.198 C 
ATOM    346  O4'   T A  15     -10.074  26.587  35.617  1.00  0.00    -0.353 OA
ATOM    347  O3'   T A  15      -6.632  26.223  36.607  1.00  0.00    -0.279 OA
ATOM    348  C2'   T A  15      -8.869  26.166  37.618  1.00  0.00     0.199 C 
ATOM    349  P     G A  16      -5.573  25.148  37.164  1.00  0.00     0.408 P 
ATOM    350  O5'   G A  16      -5.976  24.967  38.696  1.00  0.00    -0.287 OA
ATOM    351  OP2   G A  16      -5.800  23.856  36.468  1.00  0.00    -0.624 OA
ATOM    352  OP1   G A  16      -4.231  25.783  37.110  1.00  0.00    -0.624 OA
ATOM    353  C5'   G A  16      -5.574  25.920  39.678  1.00  0.00     0.216 C 
ATOM    354  C4'   G A  16      -6.305  25.675  40.977  1.00  0.00     0.180 C 
ATOM    355  C3'   G A  16      -5.905  24.417  41.735  1.00  0.00     0.198 C 
ATOM    356  O4'   G A  16      -7.718  25.480  40.705  1.00  0.00    -0.353 OA
ATOM    357  C2'   G A  16      -7.137  24.150  42.592  1.00  0.00     0.199 C 
ATOM    358  O3'   G A  16      -4.732  24.623  42.518  1.00  0.00    -0.279 OA
ATOM    359  O2'   G A  16      -7.167  25.003  43.721  1.00  0.00    -0.388 OA
ATOM    360  C1'   G A  16      -8.261  24.563  41.639  1.00  0.00     0.262 C 
ATOM    361 'HO2   G A  16      -6.262  25.272  43.886  1.00  0.00     0.210 HD
ATOM    362  N9    G A  16      -8.841  23.443  40.903  1.00  0.00    -0.293 N 
ATOM    363  C4    G A  16      -9.682  22.481  41.411  1.00  0.00     0.187 A 
ATOM    364  C8    G A  16      -8.663  23.137  39.576  1.00  0.00     0.214 A 
ATOM    365  N3    G A  16     -10.115  22.400  42.687  1.00  0.00    -0.044 NA
ATOM    366  C5    G A  16      -9.971  21.650  40.350  1.00  0.00     0.173 A 
ATOM    367  C2    G A  16     -10.914  21.366  42.870  1.00  0.00     0.703 A 
ATOM    368  N1    G A  16     -11.265  20.480  41.884  1.00  0.00    -0.153 N 
ATOM    369  N2    G A  16     -11.432  21.135  44.079  1.00  0.00    -0.233 N 
ATOM    370  H1    G A  16     -11.884  19.723  42.131  1.00  0.00     0.187 HD
ATOM    371  C6    G A  16     -10.831  20.542  40.565  1.00  0.00     0.292 A 
ATOM    372  O6    G A  16     -11.208  19.690  39.753  1.00  0.00    -0.265 OA
ATOM    373  H22   G A  16     -12.042  20.345  44.235  1.00  0.00     0.174 HD
ATOM    374  H21   G A  16     -11.205  21.757  44.841  1.00  0.00     0.174 HD
ATOM    375  N7    G A  16      -9.322  22.077  39.199  1.00  0.00    -0.234 NA
ATOM    376  P     A A  17      -3.810  23.367  42.921  1.00  0.00     0.408 P 
ATOM    377  O5'   A A  17      -4.756  22.467  43.834  1.00  0.00    -0.287 OA
ATOM    378  OP1   A A  17      -2.705  23.885  43.768  1.00  0.00    -0.624 OA
ATOM    379  OP2   A A  17      -3.491  22.604  41.688  1.00  0.00    -0.624 OA
ATOM    380  C5'   A A  17      -5.192  22.922  45.115  1.00  0.00     0.216 C 
ATOM    381  C4'   A A  17      -5.865  21.799  45.868  1.00  0.00     0.180 C 
ATOM    382  O4'   A A  17      -7.185  21.574  45.309  1.00  0.00    -0.353 OA
ATOM    383  C3'   A A  17      -5.189  20.440  45.769  1.00  0.00     0.198 C 
ATOM    384  C1'   A A  17      -7.517  20.200  45.414  1.00  0.00     0.262 C 
ATOM    385  C2'   A A  17      -6.336  19.478  46.066  1.00  0.00     0.199 C 
ATOM    386  N9    A A  17      -7.846  19.705  44.078  1.00  0.00    -0.294 N 
ATOM    387  O2'   A A  17      -6.575  19.388  47.458  1.00  0.00    -0.388 OA
ATOM    388 'HO2   A A  17      -5.788  19.715  47.894  1.00  0.00     0.210 HD
ATOM    389  C4    A A  17      -8.639  18.620  43.789  1.00  0.00     0.167 A 
ATOM    390  C8    A A  17      -7.443  20.207  42.865  1.00  0.00     0.214 A 
ATOM    391  N3    A A  17      -9.257  17.808  44.663  1.00  0.00    -0.222 NA
ATOM    392  C5    A A  17      -8.674  18.535  42.409  1.00  0.00     0.149 A 
ATOM    393  C2    A A  17      -9.944  16.865  44.021  1.00  0.00     0.237 A 
ATOM    394  N1    A A  17     -10.072  16.657  42.704  1.00  0.00    -0.222 NA
ATOM    395  C6    A A  17      -9.435  17.491  41.854  1.00  0.00     0.155 A 
ATOM    396  N6    A A  17      -9.563  17.282  40.543  1.00  0.00    -0.382 N 
ATOM    397  H62   A A  17     -10.125  16.513  40.206  1.00  0.00     0.157 HD
ATOM    398  H61   A A  17      -9.097  17.893  39.889  1.00  0.00     0.157 HD
ATOM    399  N7    A A  17      -7.912  19.545  41.836  1.00  0.00    -0.236 NA
ATOM    400  O3'   A A  17      -4.121  20.318  46.705  1.00  0.00    -0.279 OA
ATOM    401  P     C A  18      -2.800  19.488  46.309  1.00  0.00     0.408 P 
ATOM    402  O5'   C A  18      -3.303  17.980  46.213  1.00  0.00    -0.287 OA
ATOM    403  OP2   C A  18      -2.364  19.915  44.954  1.00  0.00    -0.624 OA
ATOM    404  OP1   C A  18      -1.855  19.589  47.450  1.00  0.00    -0.624 OA
ATOM    405  C5'   C A  18      -3.931  17.340  47.324  1.00  0.00     0.216 C 
ATOM    406  C4'   C A  18      -4.615  16.070  46.874  1.00  0.00     0.180 C 
ATOM    407  C3'   C A  18      -3.746  15.116  46.065  1.00  0.00     0.198 C 
ATOM    408  O4'   C A  18      -5.712  16.422  45.988  1.00  0.00    -0.353 OA
ATOM    409  C2'   C A  18      -4.761  14.396  45.186  1.00  0.00     0.199 C 
ATOM    410  O3'   C A  18      -3.031  14.220  46.914  1.00  0.00    -0.279 OA
ATOM    411  C1'   C A  18      -5.762  15.516  44.901  1.00  0.00     0.264 C 
ATOM    412  O2'   C A  18      -5.418  13.369  45.905  1.00  0.00    -0.388 OA
ATOM    413  N1    C A  18      -5.483  16.264  43.664  1.00  0.00    -0.278 N 
ATOM    414  C2    C A  18      -6.318  16.077  42.559  1.00  0.00     0.352 A 
ATOM    415  C6    C A  18      -4.427  17.128  43.590  1.00  0.00     0.102 A 
ATOM    416  O2    C A  18      -7.273  15.293  42.653  1.00  0.00    -0.244 OA
ATOM    417  N3    C A  18      -6.066  16.755  41.417  1.00  0.00    -0.177 NA
ATOM    418  C4    C A  18      -5.029  17.592  41.355  1.00  0.00     0.128 A 
ATOM    419  C5    C A  18      -4.165  17.806  42.467  1.00  0.00     0.067 A 
ATOM    420  N4    C A  18      -4.818  18.234  40.208  1.00  0.00    -0.384 N 
ATOM    421  H41   C A  18      -4.042  18.876  40.120  1.00  0.00     0.157 HD
ATOM    422  H42   C A  18      -5.437  18.077  39.425  1.00  0.00     0.157 HD
ATOM    423 'HO2   C A  18      -4.885  13.194  46.681  1.00  0.00     0.210 HD
ATOM    424  P     T A  19      -1.486  13.891  46.611  1.00  0.00     0.408 P 
ATOM    425  O5'   T A  19      -1.545  12.693  45.562  1.00  0.00    -0.287 OA
ATOM    426  OP1   T A  19      -0.892  13.371  47.870  1.00  0.00    -0.624 OA
ATOM    427  OP2   T A  19      -0.869  15.066  45.942  1.00  0.00    -0.624 OA
ATOM    428  C1'   T A  15     -10.252  26.193  36.967  1.00  0.00     0.264 C 
ATOM    429  O2'   T A  15      -8.583  27.452  38.134  1.00  0.00    -0.388 OA
ATOM    430  N1    T A  15     -10.933  24.890  36.986  1.00  0.00    -0.280 N 
ATOM    431  C2    T A  15     -11.724  24.590  38.080  1.00  0.00     0.331 A 
ATOM    432  C6    T A  15     -10.788  23.993  35.951  1.00  0.00     0.104 A 
ATOM    433  N3    T A  15     -12.325  23.360  38.041  1.00  0.00    -0.275 N 
ATOM    434  O2    T A  15     -11.881  25.356  39.014  1.00  0.00    -0.246 OA
ATOM    435  H3    T A  15     -12.899  23.116  38.835  1.00  0.00     0.173 HD
ATOM    436  C4    T A  15     -12.226  22.419  37.043  1.00  0.00     0.250 A 
ATOM    437  O4    T A  15     -12.840  21.357  37.151  1.00  0.00    -0.268 OA
ATOM    438  C5    T A  15     -11.394  22.801  35.946  1.00  0.00     0.092 A 
ATOM    439 'HO2   T A  15      -7.892  27.339  38.788  1.00  0.00     0.210 HD
ATOM    440 'HO2   T A  13     -13.461  22.761  27.228  1.00  0.00     0.210 HD
BRANCH 425 441
ATOM    441  C5'   T A  19      -0.394  12.323  44.804  1.00  0.00     0.216 C 
BRANCH 441 442
ATOM    442  C4'   T A  19      -0.743  12.225  43.338  1.00  0.00     0.180 C 
ATOM    443  O4'   T A  19       0.482  12.034  42.576  1.00  0.00    -0.353 OA
ATOM    444  C1'   T A  19       0.288  11.037  41.590  1.00  0.00     0.264 C 
ATOM    445  C2'   T A  19      -1.205  10.711  41.545  1.00  0.00     0.199 C 
ATOM    446  C3'   T A  19      -1.633  11.044  42.970  1.00  0.00     0.198 C 
BRANCH 444 447
ATOM    447  N1    T A  19       1.142   9.888  41.923  1.00  0.00    -0.280 N 
ATOM    448  C2    T A  19       1.069   8.774  41.107  1.00  0.00     0.331 A 
ATOM    449  O2    T A  19       0.324   8.706  40.145  1.00  0.00    -0.246 OA
ATOM    450  N3    T A  19       1.896   7.741  41.461  1.00  0.00    -0.275 N 
ATOM    451  H3    T A  19       1.867   6.923  40.873  1.00  0.00     0.173 HD
ATOM    452  C4    T A  19       2.767   7.704  42.526  1.00  0.00     0.250 A 
ATOM    453  O4    T A  19       3.458   6.701  42.708  1.00  0.00    -0.268 OA
ATOM    454  C5    T A  19       2.782   8.889  43.324  1.00  0.00     0.092 A 
ATOM    455  C6    T A  19       1.991   9.918  43.007  1.00  0.00     0.104 A 
ENDBRANCH 444 447
BRANCH 445 456
ATOM    456  O2'   T A  19      -1.828  11.569  40.608  1.00  0.00    -0.388 OA
ATOM    457 'HO2   T A  19      -1.663  12.465  40.907  1.00  0.00     0.210 HD
ENDBRANCH 445 456
BRANCH 446 458
ATOM    458  O3'   T A  19      -3.011  11.399  43.050  1.00  0.00    -0.279 OA
BRANCH 458 459
ATOM    459  P     C A  20      -4.110  10.268  43.367  1.00  0.00     0.408 P 
ATOM    460  OP2   C A  20      -3.405   9.004  43.698  1.00  0.00    -0.624 OA
ATOM    461  OP1   C A  20      -5.071  10.849  44.340  1.00  0.00    -0.624 OA
BRANCH 459 462
ATOM    462  O5'   C A  20      -4.866  10.077  41.979  1.00  0.00    -0.287 OA
BRANCH 462 463
ATOM    463  C5'   C A  20      -4.900   8.810  41.325  1.00  0.00     0.216 C 
ATOM    464  C4'   C A  20      -5.832   8.865  40.137  1.00  0.00     0.180 C 
ATOM    465  C3'   C A  20      -5.807  10.174  39.358  1.00  0.00     0.198 C 
ATOM    466  O4'   C A  20      -7.201   8.736  40.612  1.00  0.00    -0.353 OA
ATOM    467  C2'   C A  20      -7.220  10.255  38.792  1.00  0.00     0.199 C 
ATOM    468  C1'   C A  20      -8.032   9.667  39.945  1.00  0.00     0.264 C 
ATOM    469  N1    C A  20      -8.489  10.668  40.923  1.00  0.00    -0.278 N 
ATOM    470  C2    C A  20      -9.798  11.151  40.834  1.00  0.00     0.352 A 
ATOM    471  C6    C A  20      -7.652  11.121  41.905  1.00  0.00     0.102 A 
ATOM    472  O2    C A  20     -10.536  10.724  39.936  1.00  0.00    -0.244 OA
ATOM    473  N3    C A  20     -10.224  12.071  41.729  1.00  0.00    -0.177 NA
ATOM    474  C4    C A  20      -9.400  12.507  42.682  1.00  0.00     0.128 A 
ATOM    475  C5    C A  20      -8.062  12.031  42.797  1.00  0.00     0.067 A 
ATOM    476  N4    C A  20      -9.867  13.413  43.541  1.00  0.00    -0.384 N 
ATOM    477  H42   C A  20     -10.818  13.739  43.448  1.00  0.00     0.157 HD
ATOM    478  H41   C A  20      -9.276  13.768  44.277  1.00  0.00     0.157 HD
BRANCH 465 479
ATOM    479  O3'   C A  20      -4.811  10.155  38.338  1.00  0.00    -0.279 OA
BRANCH 479 480
ATOM    480  P     C A  21      -4.132  11.531  37.858  1.00  0.00     0.408 P 
ATOM    481  OP2   C A  21      -4.719  11.912  36.546  1.00  0.00    -0.624 OA
ATOM    482  OP1   C A  21      -4.206  12.481  38.996  1.00  0.00    -0.624 OA
BRANCH 480 483
ATOM    483  O5'   C A  21      -2.604  11.146  37.633  1.00  0.00    -0.287 OA
BRANCH 483 484
ATOM    484  C5'   C A  21      -1.813  11.813  36.651  1.00  0.00     0.216 C 
BRANCH 484 485
ATOM    485  C4'   C A  21      -0.366  11.403  36.781  1.00  0.00     0.180 C 
ATOM    486  C3'   C A  21       0.380  11.235  35.464  1.00  0.00     0.198 C 
ATOM    487  O3'   C A  21       0.929  12.471  35.015  1.00  0.00    -0.279 OA
ATOM    488  C2'   C A  21       1.454  10.215  35.821  1.00  0.00     0.199 C 
ATOM    489  P     A A  22       0.824  12.874  33.461  1.00  0.00     0.408 P 
ATOM    490  OP2   A A  22      -0.594  12.741  33.040  1.00  0.00    -0.624 OA
ATOM    491  O5'   A A  22       1.676  11.755  32.715  1.00  0.00    -0.287 OA
ATOM    492  OP1   A A  22       1.519  14.175  33.294  1.00  0.00    -0.624 OA
ATOM    493  C5'   A A  22       3.080  11.629  32.939  1.00  0.00     0.216 C 
ATOM    494  C4'   A A  22       3.627  10.443  32.179  1.00  0.00     0.180 C 
ATOM    495  C3'   A A  22       3.117  10.285  30.753  1.00  0.00     0.198 C 
ATOM    496  O4'   A A  22       3.215   9.219  32.850  1.00  0.00    -0.353 OA
ATOM    497  O3'   A A  22       3.875  11.061  29.830  1.00  0.00    -0.279 OA
ATOM    498  C2'   A A  22       3.269   8.789  30.522  1.00  0.00     0.199 C 
ATOM    499  P     G A  23       3.157  11.689  28.536  1.00  0.00     0.408 P 
ATOM    500  OP2   G A  23       1.962  12.451  28.983  1.00  0.00    -0.624 OA
ATOM    501  OP1   G A  23       4.207  12.374  27.740  1.00  0.00    -0.624 OA
ATOM    502  C1'   A A  22       2.847   8.247  31.885  1.00  0.00     0.262 C 
ATOM    503  O2'   A A  22       4.621   8.442  30.289  1.00  0.00    -0.388 OA
ATOM    504  N9    A A  22       1.408   8.005  32.001  1.00  0.00    -0.294 N 
ATOM    505  C4    A A  22       0.713   6.944  31.474  1.00  0.00     0.167 A 
ATOM    506  C8    A A  22       0.476   8.779  32.647  1.00  0.00     0.214 A 
ATOM    507  N3    A A  22       1.207   5.922  30.753  1.00  0.00    -0.222 NA
ATOM    508  C5    A A  22      -0.607   7.142  31.835  1.00  0.00     0.149 A 
ATOM    509  C2    A A  22       0.236   5.079  30.408  1.00  0.00     0.237 A 
ATOM    510  N1    A A  22      -1.073   5.137  30.683  1.00  0.00    -0.222 NA
ATOM    511  C6    A A  22      -1.536   6.176  31.409  1.00  0.00     0.155 A 
ATOM    512  N6    A A  22      -2.840   6.233  31.682  1.00  0.00    -0.382 N 
ATOM    513  H61   A A  22      -3.206   7.003  32.224  1.00  0.00     0.157 HD
ATOM    514  H62   A A  22      -3.455   5.507  31.346  1.00  0.00     0.157 HD
ATOM    515  N7    A A  22      -0.743   8.306  32.578  1.00  0.00    -0.236 NA
ATOM    516 'HO2   A A  22       5.055   9.234  29.970  1.00  0.00     0.210 HD
ATOM    517  C1'   C A  21       0.686   9.303  36.777  1.00  0.00     0.264 C 
ATOM    518  O2'   C A  21       2.520  10.822  36.527  1.00  0.00    -0.388 OA
ATOM    519  N1    C A  21       0.017   8.172  36.112  1.00  0.00    -0.278 N 
ATOM    520  O4'   C A  21      -0.301  10.095  37.413  1.00  0.00    -0.353 OA
ATOM    521  C6    C A  21      -1.333   8.181  35.899  1.00  0.00     0.102 A 
ATOM    522  C2    C A  21       0.788   7.082  35.696  1.00  0.00     0.352 A 
ATOM    523  C5    C A  21      -1.946   7.157  35.292  1.00  0.00     0.067 A 
ATOM    524  C4    C A  21      -1.134   6.061  34.879  1.00  0.00     0.128 A 
ATOM    525  N4    C A  21      -1.684   5.012  34.269  1.00  0.00    -0.384 N 
ATOM    526  N3    C A  21       0.183   6.041  35.082  1.00  0.00    -0.177 NA
ATOM    527  H41   C A  21      -2.678   4.988  34.095  1.00  0.00     0.157 HD
ATOM    528  H42   C A  21      -1.096   4.244  33.979  1.00  0.00     0.157 HD
ATOM    529  O2    C A  21       2.011   7.098  35.901  1.00  0.00    -0.244 OA
ATOM    530 'HO2   C A  21       2.435  11.767  36.394  1.00  0.00     0.210 HD
BRANCH 499 531
ATOM    531  O5'   G A  23       2.662  10.416  27.714  1.00  0.00    -0.287 OA
BRANCH 531 532
ATOM    532  C5'   G A  23       2.088  10.558  26.416  1.00  0.00     0.216 C 
BRANCH 532 533
ATOM    533  C4'   G A  23       2.916   9.814  25.394  1.00  0.00     0.180 C 
ATOM    534  C3'   G A  23       2.174   8.755  24.591  1.00  0.00     0.198 C 
ATOM    535  C2'   G A  23       3.301   7.826  24.159  1.00  0.00     0.199 C 
ATOM    536  C1'   G A  23       4.197   7.848  25.397  1.00  0.00     0.262 C 
ATOM    537  N9    G A  23       3.940   6.750  26.322  1.00  0.00    -0.293 N 
ATOM    538  O4'   G A  23       3.963   9.072  26.075  1.00  0.00    -0.353 OA
ATOM    539  C4    G A  23       4.139   5.413  26.076  1.00  0.00     0.187 A 
ATOM    540  C8    G A  23       3.452   6.838  27.604  1.00  0.00     0.214 A 
ATOM    541  N3    G A  23       4.610   4.881  24.930  1.00  0.00    -0.044 NA
ATOM    542  C5    G A  23       3.756   4.766  27.232  1.00  0.00     0.173 A 
ATOM    543  C2    G A  23       4.688   3.564  24.994  1.00  0.00     0.703 A 
ATOM    544  N2    G A  23       5.134   2.876  23.939  1.00  0.00    -0.233 N 
ATOM    545  N1    G A  23       4.334   2.826  26.093  1.00  0.00    -0.153 N 
ATOM    546  H21   G A  23       5.406   3.380  23.107  1.00  0.00     0.174 HD
ATOM    547  H22   G A  23       5.192   1.869  23.968  1.00  0.00     0.174 HD
ATOM    548  H1    G A  23       4.429   1.824  26.040  1.00  0.00     0.187 HD
ATOM    549  C6    G A  23       3.847   3.350  27.284  1.00  0.00     0.292 A 
ATOM    550  O6    G A  23       3.559   2.592  28.216  1.00  0.00    -0.265 OA
ATOM    551  N7    G A  23       3.325   5.678  28.187  1.00  0.00    -0.234 NA
BRANCH 534 552
ATOM    552  O3'   G A  23       1.480   9.323  23.484  1.00  0.00    -0.279 OA
BRANCH 552 553
ATOM    553  P     A A  24       0.619   8.376  22.508  1.00  0.00     0.408 P 
ATOM    554  OP1   A A  24      -0.098   7.397  23.365  1.00  0.00    -0.624 OA
ATOM    555  OP2   A A  24       1.505   7.888  21.422  1.00  0.00    -0.624 OA
BRANCH 553 556
ATOM    556  O5'   A A  24      -0.460   9.358  21.868  1.00  0.00    -0.287 OA
BRANCH 556 557
ATOM    557  C5'   A A  24      -1.005   9.109  20.573  1.00  0.00     0.216 C 
BRANCH 557 558
ATOM    558  C4'   A A  24      -2.498   9.334  20.584  1.00  0.00     0.180 C 
ATOM    559  C3'   A A  24      -3.152   9.322  21.958  1.00  0.00     0.198 C 
ATOM    560  O3'   A A  24      -3.093  10.604  22.578  1.00  0.00    -0.279 OA
ATOM    561  C2'   A A  24      -4.579   8.895  21.639  1.00  0.00     0.199 C 
ATOM    562  P     T A  25      -3.044  10.713  24.183  1.00  0.00     0.408 P 
ATOM    563  OP1   T A  25      -3.097  12.156  24.530  1.00  0.00    -0.624 OA
ATOM    564  O5'   T A  25      -4.404  10.034  24.658  1.00  0.00    -0.287 OA
ATOM    565  OP2   T A  25      -1.916   9.882  24.675  1.00  0.00    -0.624 OA
ATOM    566  C5'   T A  25      -5.666  10.634  24.371  1.00  0.00     0.216 C 
ATOM    567  C4'   T A  25      -6.781   9.837  25.008  1.00  0.00     0.180 C 
ATOM    568  C3'   T A  25      -6.536   9.408  26.448  1.00  0.00     0.198 C 
ATOM    569  O4'   T A  25      -6.944   8.591  24.279  1.00  0.00    -0.353 OA
ATOM    570  O3'   T A  25      -6.917  10.426  27.368  1.00  0.00    -0.279 OA
ATOM    571  C2'   T A  25      -7.400   8.158  26.574  1.00  0.00     0.199 C 
ATOM    572  P     C A  26      -6.368  10.384  28.880  1.00  0.00     0.408 P 
ATOM    573  OP1   C A  26      -6.756  11.661  29.529  1.00  0.00    -0.624 OA
ATOM    574  O5'   C A  26      -7.205   9.210  29.560  1.00  0.00    -0.287 OA
ATOM    575  OP2   C A  26      -4.937   9.981  28.848  1.00  0.00    -0.624 OA
ATOM    576  C5'   C A  26      -6.636   8.401  30.587  1.00  0.00     0.216 C 
ATOM    577  C4'   C A  26      -7.500   7.187  30.834  1.00  0.00     0.180 C 
ATOM    578  C3'   C A  26      -6.952   6.207  31.865  1.00  0.00     0.198 C 
ATOM    579  O4'   C A  26      -7.600   6.425  29.599  1.00  0.00    -0.353 OA
ATOM    580  O3'   C A  26      -7.403   6.531  33.178  1.00  0.00    -0.279 OA
ATOM    581  C2'   C A  26      -7.493   4.869  31.378  1.00  0.00     0.199 C 
ATOM    582  P     A A  27      -6.344   6.985  34.301  1.00  0.00     0.408 P 
ATOM    583  OP1   A A  27      -7.044   7.932  35.206  1.00  0.00    -0.624 OA
ATOM    584  OP2   A A  27      -5.084   7.404  33.635  1.00  0.00    -0.624 OA
ATOM    585  O5'   A A  27      -6.055   5.647  35.116  1.00  0.00    -0.287 OA
ATOM    586  C5'   A A  27      -7.126   4.854  35.627  1.00  0.00     0.216 C 
ATOM    587  C4'   A A  27      -6.614   3.502  36.063  1.00  0.00     0.180 C 
ATOM    588  C3'   A A  27      -5.176   3.470  36.562  1.00  0.00     0.198 C 
ATOM    589  O4'   A A  27      -6.617   2.604  34.917  1.00  0.00    -0.353 OA
ATOM    590  C2'   A A  27      -4.778   2.026  36.291  1.00  0.00     0.199 C 
ATOM    591  O2'   A A  27      -5.356   1.145  37.236  1.00  0.00    -0.388 OA
ATOM    592  C1'   A A  27      -5.449   1.801  34.938  1.00  0.00     0.262 C 
ATOM    593 'HO2   A A  27      -5.391   1.619  38.068  1.00  0.00     0.210 HD
ATOM    594  N9    A A  27      -4.610   2.173  33.800  1.00  0.00    -0.294 N 
ATOM    595  C4    A A  27      -3.623   1.404  33.231  1.00  0.00     0.167 A 
ATOM    596  C8    A A  27      -4.631   3.345  33.084  1.00  0.00     0.214 A 
ATOM    597  N3    A A  27      -3.240   0.170  33.598  1.00  0.00    -0.222 NA
ATOM    598  C5    A A  27      -3.101   2.163  32.199  1.00  0.00     0.149 A 
ATOM    599  C2    A A  27      -2.250  -0.264  32.821  1.00  0.00     0.237 A 
ATOM    600  N1    A A  27      -1.647   0.350  31.795  1.00  0.00    -0.222 NA
ATOM    601  C6    A A  27      -2.057   1.590  31.452  1.00  0.00     0.155 A 
ATOM    602  N6    A A  27      -1.455   2.199  30.430  1.00  0.00    -0.382 N 
ATOM    603  H61   A A  27      -1.745   3.126  30.154  1.00  0.00     0.157 HD
ATOM    604  H62   A A  27      -0.709   1.732  29.932  1.00  0.00     0.157 HD
ATOM    605  N7    A A  27      -3.748   3.389  32.115  1.00  0.00    -0.236 NA
ATOM    606  O2'   C A  26      -8.853   4.705  31.733  1.00  0.00    -0.388 OA
ATOM    607  C1'   C A  26      -7.398   5.049  29.864  1.00  0.00     0.264 C 
ATOM    608 'HO2   C A  26      -9.020   5.305  32.461  1.00  0.00     0.210 HD
ATOM    609  N1    C A  26      -6.100   4.652  29.292  1.00  0.00    -0.278 N 
ATOM    610  C6    C A  26      -5.288   5.575  28.692  1.00  0.00     0.102 A 
ATOM    611  C2    C A  26      -5.708   3.313  29.367  1.00  0.00     0.352 A 
ATOM    612  C5    C A  26      -4.109   5.220  28.165  1.00  0.00     0.067 A 
ATOM    613  C4    C A  26      -3.737   3.849  28.256  1.00  0.00     0.128 A 
ATOM    614  N4    C A  26      -2.577   3.436  27.748  1.00  0.00    -0.384 N 
ATOM    615  N3    C A  26      -4.520   2.941  28.840  1.00  0.00    -0.177 NA
ATOM    616  H41   C A  26      -1.954   4.091  27.298  1.00  0.00     0.157 HD
ATOM    617  H42   C A  26      -2.321   2.460  27.811  1.00  0.00     0.157 HD
ATOM    618  O2    C A  26      -6.459   2.496  29.918  1.00  0.00    -0.244 OA
ATOM    619  C1'   T A  25      -7.242   7.541  25.183  1.00  0.00     0.264 C 
ATOM    620  O2'   T A  25      -8.761   8.492  26.769  1.00  0.00    -0.388 OA
ATOM    621  N1    T A  25      -6.173   6.537  25.099  1.00  0.00    -0.280 N 
ATOM    622  C6    T A  25      -4.895   6.883  24.717  1.00  0.00     0.104 A 
ATOM    623  C2    T A  25      -6.492   5.229  25.414  1.00  0.00     0.331 A 
ATOM    624  C5    T A  25      -3.908   5.987  24.629  1.00  0.00     0.092 A 
ATOM    625  C4    T A  25      -4.160   4.614  24.940  1.00  0.00     0.250 A 
ATOM    626  N3    T A  25      -5.455   4.340  25.313  1.00  0.00    -0.275 N 
ATOM    627  O4    T A  25      -3.334   3.702  24.911  1.00  0.00    -0.268 OA
ATOM    628  H3    T A  25      -5.671   3.377  25.528  1.00  0.00     0.173 HD
ATOM    629  O2    T A  25      -7.608   4.884  25.757  1.00  0.00    -0.246 OA
ATOM    630 'HO2   T A  25      -8.783   9.210  27.402  1.00  0.00     0.210 HD
ATOM    631  C1'   A A  24      -4.339   7.876  20.526  1.00  0.00     0.262 C 
ATOM    632  O4'   A A  24      -3.143   8.246  19.863  1.00  0.00    -0.353 OA
BRANCH 588 633
ATOM    633  O3'   A A  27      -5.084   3.816  37.942  1.00  0.00    -0.279 OA
BRANCH 633 634
ATOM    634  P     G A  28      -3.835   4.683  38.464  1.00  0.00     0.408 P 
ATOM    635  OP2   G A  28      -2.701   3.765  38.744  1.00  0.00    -0.624 OA
ATOM    636  OP1   G A  28      -3.649   5.806  37.510  1.00  0.00    -0.624 OA
BRANCH 634 637
ATOM    637  O5'   G A  28      -4.340   5.292  39.847  1.00  0.00    -0.287 OA
BRANCH 637 638
ATOM    638  C5'   G A  28      -3.411   5.704  40.849  1.00  0.00     0.216 C 
BRANCH 638 639
ATOM    639  C4'   G A  28      -3.672   4.967  42.143  1.00  0.00     0.180 C 
ATOM    640  C3'   G A  28      -2.517   4.133  42.676  1.00  0.00     0.198 C 
ATOM    641  C2'   G A  28      -3.228   3.152  43.604  1.00  0.00     0.199 C 
ATOM    642  O2'   G A  28      -3.518   3.757  44.850  1.00  0.00    -0.388 OA
ATOM    643  C1'   G A  28      -4.543   2.917  42.856  1.00  0.00     0.262 C 
ATOM    644 'HO2   G A  28      -3.001   4.561  44.892  1.00  0.00     0.210 HD
ATOM    645  O4'   G A  28      -4.724   3.989  41.948  1.00  0.00    -0.353 OA
ATOM    646  N9    G A  28      -4.573   1.663  42.108  1.00  0.00    -0.293 N 
ATOM    647  C8    G A  28      -4.634   1.509  40.744  1.00  0.00     0.214 A 
ATOM    648  C4    G A  28      -4.545   0.396  42.639  1.00  0.00     0.187 A 
ATOM    649  N7    G A  28      -4.649   0.260  40.368  1.00  0.00    -0.234 NA
ATOM    650  C5    G A  28      -4.593  -0.456  41.557  1.00  0.00     0.173 A 
ATOM    651  C6    G A  28      -4.578  -1.857  41.789  1.00  0.00     0.292 A 
ATOM    652  O6    G A  28      -4.613  -2.778  40.963  1.00  0.00    -0.265 OA
ATOM    653  N1    G A  28      -4.514  -2.150  43.146  1.00  0.00    -0.153 N 
ATOM    654  C2    G A  28      -4.471  -1.218  44.151  1.00  0.00     0.703 A 
ATOM    655  H1    G A  28      -4.500  -3.123  43.408  1.00  0.00     0.187 HD
ATOM    656  N3    G A  28      -4.483   0.087  43.951  1.00  0.00    -0.044 NA
ATOM    657  N2    G A  28      -4.409  -1.698  45.396  1.00  0.00    -0.233 N 
ATOM    658  H21   G A  28      -4.374  -1.053  46.171  1.00  0.00     0.174 HD
ATOM    659  H22   G A  28      -4.398  -2.695  45.561  1.00  0.00     0.174 HD
BRANCH 640 660
ATOM    660  O3'   G A  28      -1.562   4.938  43.361  1.00  0.00    -0.279 OA
BRANCH 660 661
ATOM    661  P     A A  29       0.004   4.787  43.019  1.00  0.00     0.408 P 
ATOM    662  OP2   A A  29       0.242   5.332  41.658  1.00  0.00    -0.624 OA
ATOM    663  OP1   A A  29       0.758   5.341  44.173  1.00  0.00    -0.624 OA
BRANCH 661 664
ATOM    664  O5'   A A  29       0.242   3.213  42.981  1.00  0.00    -0.287 OA
BRANCH 664 665
ATOM    665  C5'   A A  29       0.181   2.490  41.751  1.00  0.00     0.216 C 
BRANCH 665 666
ATOM    666  C4'   A A  29       1.545   1.948  41.395  1.00  0.00     0.180 C 
ATOM    667  O4'   A A  29       1.464   0.506  41.253  1.00  0.00    -0.353 OA
ATOM    668  C1'   A A  29       2.392   0.073  40.273  1.00  0.00     0.262 C 
ATOM    669  N9    A A  29       1.664  -0.683  39.253  1.00  0.00    -0.294 N 
ATOM    670  C2'   A A  29       3.112   1.309  39.729  1.00  0.00     0.199 C 
ATOM    671  C8    A A  29       0.332  -0.599  38.930  1.00  0.00     0.214 A 
ATOM    672  C4    A A  29       2.194  -1.636  38.416  1.00  0.00     0.167 A 
ATOM    673  N7    A A  29      -0.030  -1.413  37.968  1.00  0.00    -0.236 NA
ATOM    674  C5    A A  29       1.142  -2.076  37.633  1.00  0.00     0.149 A 
ATOM    675  C6    A A  29       1.431  -3.070  36.680  1.00  0.00     0.155 A 
ATOM    676  N6    A A  29       0.521  -3.594  35.856  1.00  0.00    -0.382 N 
ATOM    677  N1    A A  29       2.704  -3.515  36.601  1.00  0.00    -0.222 NA
ATOM    678  H62   A A  29       0.791  -4.307  35.192  1.00  0.00     0.157 HD
ATOM    679  H61   A A  29      -0.437  -3.276  35.899  1.00  0.00     0.157 HD
ATOM    680  C2    A A  29       3.618  -2.992  37.430  1.00  0.00     0.237 A 
ATOM    681  N3    A A  29       3.470  -2.057  38.366  1.00  0.00    -0.222 NA
ATOM    682  O2'   A A  29       4.320   1.479  40.446  1.00  0.00    -0.388 OA
ATOM    683  C3'   A A  29       2.116   2.414  40.065  1.00  0.00     0.198 C 
ATOM    684 'HO2   A A  29       4.383   2.410  40.656  1.00  0.00     0.210 HD
ATOM    685  O3'   A A  29       2.737   3.691  40.184  1.00  0.00    -0.279 OA
ATOM    686  P     A A  30       2.819   4.666  38.905  1.00  0.00     0.408 P 
ATOM    687  O5'   A A  30       3.989   4.043  38.020  1.00  0.00    -0.287 OA
ATOM    688  OP2   A A  30       1.549   4.557  38.143  1.00  0.00    -0.624 OA
ATOM    689  OP1   A A  30       3.262   5.991  39.407  1.00  0.00    -0.624 OA
ATOM    690  C5'   A A  30       5.322   3.956  38.520  1.00  0.00     0.216 C 
ATOM    691  C4'   A A  30       6.191   3.179  37.559  1.00  0.00     0.180 C 
ATOM    692  C3'   A A  30       6.111   3.602  36.100  1.00  0.00     0.198 C 
ATOM    693  O4'   A A  30       5.761   1.795  37.536  1.00  0.00    -0.353 OA
ATOM    694  O3'   A A  30       6.939   4.733  35.840  1.00  0.00    -0.279 OA
ATOM    695  C2'   A A  30       6.584   2.350  35.365  1.00  0.00     0.199 C 
ATOM    696  P     G A  31       6.724   5.593  34.497  1.00  0.00     0.408 P 
ATOM    697  O5'   G A  31       7.351   4.675  33.353  1.00  0.00    -0.287 OA
ATOM    698  OP1   G A  31       7.567   6.808  34.625  1.00  0.00    -0.624 OA
ATOM    699  OP2   G A  31       5.264   5.735  34.254  1.00  0.00    -0.624 OA
ATOM    700  C5'   G A  31       6.521   3.977  32.423  1.00  0.00     0.216 C 
ATOM    701  C4'   G A  31       6.407   4.757  31.132  1.00  0.00     0.180 C 
ATOM    702  O4'   G A  31       6.698   6.157  31.406  1.00  0.00    -0.353 OA
ATOM    703  C3'   G A  31       7.386   4.345  30.036  1.00  0.00     0.198 C 
ATOM    704  C1'   G A  31       7.598   6.658  30.437  1.00  0.00     0.262 C 
ATOM    705  C2'   G A  31       7.628   5.652  29.288  1.00  0.00     0.199 C 
ATOM    706  N9    G A  31       8.891   6.873  31.083  1.00  0.00    -0.293 N 
ATOM    707  O2'   G A  31       6.564   5.942  28.402  1.00  0.00    -0.388 OA
ATOM    708 'HO2   G A  31       5.994   5.172  28.393  1.00  0.00     0.210 HD
ATOM    709  C4    G A  31      10.082   6.261  30.768  1.00  0.00     0.187 A 
ATOM    710  C8    G A  31       9.161   7.727  32.124  1.00  0.00     0.214 A 
ATOM    711  N3    G A  31      10.268   5.342  29.798  1.00  0.00    -0.044 NA
ATOM    712  C5    G A  31      11.007   6.788  31.643  1.00  0.00     0.173 A 
ATOM    713  C2    G A  31      11.523   4.940  29.734  1.00  0.00     0.703 A 
ATOM    714  N2    G A  31      11.879   4.026  28.826  1.00  0.00    -0.233 N 
ATOM    715  N1    G A  31      12.520   5.399  30.555  1.00  0.00    -0.153 N 
ATOM    716  H22   G A  31      12.834   3.708  28.760  1.00  0.00     0.174 HD
ATOM    717  H21   G A  31      11.174   3.661  28.202  1.00  0.00     0.174 HD
ATOM    718  C6    G A  31      12.354   6.343  31.562  1.00  0.00     0.292 A 
ATOM    719  H1    G A  31      13.449   5.030  30.423  1.00  0.00     0.187 HD
ATOM    720  O6    G A  31      13.323   6.685  32.248  1.00  0.00    -0.265 OA
ATOM    721  N7    G A  31      10.412   7.711  32.493  1.00  0.00    -0.234 NA
ATOM    722  O2'   A A  30       7.997   2.272  35.343  1.00  0.00    -0.388 OA
ATOM    723  C1'   A A  30       6.052   1.234  36.269  1.00  0.00     0.262 C 
ATOM    724 'HO2   A A  30       8.324   3.172  35.316  1.00  0.00     0.210 HD
ATOM    725  N9    A A  30       4.840   0.599  35.753  1.00  0.00    -0.294 N 
ATOM    726  C8    A A  30       3.539   1.016  35.896  1.00  0.00     0.214 A 
ATOM    727  C4    A A  30       4.783  -0.554  35.009  1.00  0.00     0.167 A 
ATOM    728  N7    A A  30       2.666   0.236  35.306  1.00  0.00    -0.236 NA
ATOM    729  C5    A A  30       3.444  -0.764  34.738  1.00  0.00     0.149 A 
ATOM    730  C6    A A  30       3.118  -1.898  33.971  1.00  0.00     0.155 A 
ATOM    731  N6    A A  30       1.874  -2.229  33.626  1.00  0.00    -0.382 N 
ATOM    732  N1    A A  30       4.132  -2.692  33.563  1.00  0.00    -0.222 NA
ATOM    733  H61   A A  30       1.100  -1.650  33.919  1.00  0.00     0.157 HD
ATOM    734  H62   A A  30       1.703  -3.053  33.066  1.00  0.00     0.157 HD
ATOM    735  C2    A A  30       5.384  -2.361  33.908  1.00  0.00     0.237 A 
ATOM    736  N3    A A  30       5.815  -1.323  34.619  1.00  0.00    -0.222 NA
BRANCH 703 737
ATOM    737  O3'   G A  31       6.829   3.334  29.198  1.00  0.00    -0.279 OA
BRANCH 737 738
ATOM    738  P     G A  32       7.396   1.829  29.268  1.00  0.00     0.408 P 
ATOM    739  OP2   G A  32       8.664   1.858  30.040  1.00  0.00    -0.624 OA
ATOM    740  OP1   G A  32       6.294   0.932  29.705  1.00  0.00    -0.624 OA
BRANCH 738 741
ATOM    741  O5'   G A  32       7.755   1.481  27.753  1.00  0.00    -0.287 OA
BRANCH 741 742
ATOM    742  C5'   G A  32       7.414   0.218  27.184  1.00  0.00     0.216 C 
BRANCH 742 743
ATOM    743  C4'   G A  32       6.270   0.375  26.210  1.00  0.00     0.180 C 
ATOM    744  C3'   G A  32       5.182  -0.689  26.305  1.00  0.00     0.198 C 
ATOM    745  C2'   G A  32       4.653  -0.762  24.878  1.00  0.00     0.199 C 
ATOM    746  O3'   G A  32       4.170  -0.319  27.236  1.00  0.00    -0.279 OA
ATOM    747  O2'   G A  32       3.757   0.300  24.612  1.00  0.00    -0.388 OA
ATOM    748  C1'   G A  32       5.932  -0.537  24.073  1.00  0.00     0.262 C 
ATOM    749 'HO2   G A  32       3.372   0.550  25.453  1.00  0.00     0.210 HD
ATOM    750  N9    G A  32       6.639  -1.768  23.730  1.00  0.00    -0.293 N 
ATOM    751  O4'   G A  32       6.794   0.264  24.859  1.00  0.00    -0.353 OA
ATOM    752  C4    G A  32       6.163  -2.790  22.945  1.00  0.00     0.187 A 
ATOM    753  C8    G A  32       7.902  -2.138  24.122  1.00  0.00     0.214 A 
ATOM    754  C5    G A  32       7.176  -3.724  22.906  1.00  0.00     0.173 A 
ATOM    755  N3    G A  32       4.952  -2.835  22.351  1.00  0.00    -0.044 NA
ATOM    756  N7    G A  32       8.268  -3.299  23.652  1.00  0.00    -0.234 NA
ATOM    757  C6    G A  32       6.980  -4.914  22.158  1.00  0.00     0.292 A 
ATOM    758  N1    G A  32       5.727  -4.936  21.556  1.00  0.00    -0.153 N 
ATOM    759  O6    G A  32       7.754  -5.863  22.001  1.00  0.00    -0.265 OA
ATOM    760  H1    G A  32       5.497  -5.745  20.999  1.00  0.00     0.187 HD
ATOM    761  C2    G A  32       4.785  -3.946  21.659  1.00  0.00     0.703 A 
ATOM    762  N2    G A  32       3.639  -4.153  21.006  1.00  0.00    -0.233 N 
ATOM    763  H21   G A  32       2.913  -3.453  21.051  1.00  0.00     0.174 HD
ATOM    764  H22   G A  32       3.501  -5.000  20.471  1.00  0.00     0.174 HD
ATOM    765  P     C A  33       3.430  -1.450  28.109  1.00  0.00     0.408 P 
ATOM    766  O5'   C A  33       2.699  -2.361  27.025  1.00  0.00    -0.287 OA
ATOM    767  OP2   C A  33       4.470  -2.270  28.781  1.00  0.00    -0.624 OA
ATOM    768  OP1   C A  33       2.393  -0.769  28.925  1.00  0.00    -0.624 OA
ATOM    769  C5'   C A  33       1.457  -1.960  26.446  1.00  0.00     0.216 C 
ATOM    770  C4'   C A  33       0.973  -3.004  25.466  1.00  0.00     0.180 C 
ATOM    771  C3'   C A  33       0.683  -4.379  26.053  1.00  0.00     0.198 C 
ATOM    772  O4'   C A  33       2.011  -3.252  24.484  1.00  0.00    -0.353 OA
ATOM    773  O3'   C A  33      -0.620  -4.436  26.627  1.00  0.00    -0.279 OA
ATOM    774  C2'   C A  33       0.828  -5.291  24.839  1.00  0.00     0.199 C 
ATOM    775  P     T A  34      -0.998  -5.625  27.644  1.00  0.00     0.408 P 
ATOM    776  OP2   T A  34      -0.102  -5.541  28.826  1.00  0.00    -0.624 OA
ATOM    777  OP1   T A  34      -2.471  -5.584  27.837  1.00  0.00    -0.624 OA
ATOM    778  O5'   T A  34      -0.639  -6.955  26.842  1.00  0.00    -0.287 OA
ATOM    779  C5'   T A  34      -1.441  -7.392  25.744  1.00  0.00     0.216 C 
ATOM    780  C4'   T A  34      -1.076  -8.807  25.361  1.00  0.00     0.180 C 
ATOM    781  C3'   T A  34      -0.905  -9.781  26.516  1.00  0.00     0.198 C 
ATOM    782  O4'   T A  34       0.221  -8.807  24.708  1.00  0.00    -0.353 OA
ATOM    783  C2'   T A  34      -0.002 -10.852  25.913  1.00  0.00     0.199 C 
ATOM    784  O3'   T A  34      -2.161 -10.304  26.944  1.00  0.00    -0.279 OA
ATOM    785  O2'   T A  34      -0.747 -11.746  25.109  1.00  0.00    -0.388 OA
ATOM    786  C1'   T A  34       0.904 -10.011  25.009  1.00  0.00     0.264 C 
ATOM    787 'HO2   T A  34      -1.667 -11.602  25.334  1.00  0.00     0.210 HD
ATOM    788  N1    T A  34       2.196  -9.669  25.620  1.00  0.00    -0.280 N 
ATOM    789  C2    T A  34       3.322 -10.332  25.165  1.00  0.00     0.331 A 
ATOM    790  C6    T A  34       2.286  -8.720  26.615  1.00  0.00     0.104 A 
ATOM    791  N3    T A  34       4.494  -9.973  25.779  1.00  0.00    -0.275 N 
ATOM    792  O2    T A  34       3.286 -11.172  24.284  1.00  0.00    -0.246 OA
ATOM    793  H3    T A  34       5.327 -10.450  25.468  1.00  0.00     0.173 HD
ATOM    794  C4    T A  34       4.656  -9.038  26.776  1.00  0.00     0.250 A 
ATOM    795  C5    T A  34       3.448  -8.396  27.190  1.00  0.00     0.092 A 
ATOM    796  O4    T A  34       5.782  -8.825  27.226  1.00  0.00    -0.268 OA
ATOM    797  P     G A  35      -2.636 -10.096  28.467  1.00  0.00     0.408 P 
ATOM    798  OP1   G A  35      -4.048 -10.554  28.549  1.00  0.00    -0.624 OA
ATOM    799  O5'   G A  35      -1.733 -11.116  29.295  1.00  0.00    -0.287 OA
ATOM    800  OP2   G A  35      -2.290  -8.713  28.888  1.00  0.00    -0.624 OA
ATOM    801  C5'   G A  35      -1.496 -12.441  28.822  1.00  0.00     0.216 C 
ATOM    802  C4'   G A  35      -0.602 -13.189  29.784  1.00  0.00     0.180 C 
ATOM    803  C3'   G A  35      -0.753 -12.804  31.251  1.00  0.00     0.198 C 
ATOM    804  O4'   G A  35       0.786 -12.893  29.464  1.00  0.00    -0.353 OA
ATOM    805  O3'   G A  35      -1.785 -13.551  31.886  1.00  0.00    -0.279 OA
ATOM    806  C2'   G A  35       0.628 -13.112  31.814  1.00  0.00     0.199 C 
ATOM    807  P     C A  36      -2.945 -12.780  32.688  1.00  0.00     0.408 P 
ATOM    808  OP1   C A  36      -3.793 -13.812  33.336  1.00  0.00    -0.624 OA
ATOM    809  O5'   C A  36      -2.162 -11.993  33.830  1.00  0.00    -0.287 OA
ATOM    810  OP2   C A  36      -3.568 -11.786  31.777  1.00  0.00    -0.624 OA
ATOM    811  C5'   C A  36      -1.327 -12.683  34.758  1.00  0.00     0.216 C 
ATOM    812  C4'   C A  36      -0.901 -11.754  35.868  1.00  0.00     0.180 C 
ATOM    813  C3'   C A  36      -1.937 -10.726  36.299  1.00  0.00     0.198 C 
ATOM    814  O4'   C A  36       0.224 -10.954  35.412  1.00  0.00    -0.353 OA
ATOM    815  O3'   C A  36      -2.858 -11.271  37.241  1.00  0.00    -0.279 OA
ATOM    816  C2'   C A  36      -1.073  -9.625  36.897  1.00  0.00     0.199 C 
ATOM    817  P     G A  37      -4.334 -10.644  37.371  1.00  0.00     0.408 P 
ATOM    818  O5'   G A  37      -4.102  -9.274  38.153  1.00  0.00    -0.287 OA
ATOM    819  OP2   G A  37      -4.835 -10.323  36.010  1.00  0.00    -0.624 OA
ATOM    820  OP1   G A  37      -5.120 -11.549  38.247  1.00  0.00    -0.624 OA
ATOM    821  C5'   G A  37      -3.575  -9.262  39.480  1.00  0.00     0.216 C 
ATOM    822  C4'   G A  37      -3.902  -7.953  40.160  1.00  0.00     0.180 C 
ATOM    823  C3'   G A  37      -5.204  -7.295  39.720  1.00  0.00     0.198 C 
ATOM    824  O4'   G A  37      -2.862  -6.988  39.835  1.00  0.00    -0.353 OA
ATOM    825  O3'   G A  37      -6.308  -7.746  40.500  1.00  0.00    -0.279 OA
ATOM    826  C2'   G A  37      -4.912  -5.815  39.923  1.00  0.00     0.199 C 
ATOM    827  P     T A  38      -7.796  -7.683  39.891  1.00  0.00     0.408 P 
ATOM    828  OP2   T A  38      -7.777  -8.297  38.538  1.00  0.00    -0.624 OA
ATOM    829  OP1   T A  38      -8.719  -8.215  40.925  1.00  0.00    -0.624 OA
ATOM    830  O5'   T A  38      -8.079  -6.124  39.726  1.00  0.00    -0.287 OA
ATOM    831  C5'   T A  38      -8.160  -5.268  40.865  1.00  0.00     0.216 C 
ATOM    832  C4'   T A  38      -8.387  -3.839  40.430  1.00  0.00     0.180 C 
ATOM    833  C3'   T A  38      -9.514  -3.628  39.430  1.00  0.00     0.198 C 
ATOM    834  O4'   T A  38      -7.203  -3.359  39.738  1.00  0.00    -0.353 OA
ATOM    835  O3'   T A  38     -10.781  -3.532  40.076  1.00  0.00    -0.279 OA
ATOM    836  C2'   T A  38      -9.102  -2.326  38.754  1.00  0.00     0.199 C 
ATOM    837  P     G A  39     -12.120  -3.915  39.272  1.00  0.00     0.408 P 
ATOM    838  O5'   G A  39     -12.162  -2.866  38.073  1.00  0.00    -0.287 OA
ATOM    839  OP2   G A  39     -11.950  -5.275  38.699  1.00  0.00    -0.624 OA
ATOM    840  OP1   G A  39     -13.268  -3.637  40.172  1.00  0.00    -0.624 OA
ATOM    841  C5'   G A  39     -12.261  -1.466  38.328  1.00  0.00     0.216 C 
ATOM    842  C4'   G A  39     -12.197  -0.692  37.032  1.00  0.00     0.180 C 
ATOM    843  O4'   G A  39     -10.853  -0.759  36.491  1.00  0.00    -0.353 OA
ATOM    844  C3'   G A  39     -13.055  -1.225  35.896  1.00  0.00     0.198 C 
ATOM    845  C1'   G A  39     -10.912  -0.653  35.078  1.00  0.00     0.262 C 
ATOM    846  N9    G A  39     -10.188  -1.780  34.496  1.00  0.00    -0.293 N 
ATOM    847  C2'   G A  39     -12.388  -0.606  34.673  1.00  0.00     0.199 C 
ATOM    848  C4    G A  39      -9.672  -1.847  33.224  1.00  0.00     0.187 A 
ATOM    849  C8    G A  39      -9.890  -2.978  35.098  1.00  0.00     0.214 A 
ATOM    850  N3    G A  39      -9.740  -0.878  32.287  1.00  0.00    -0.044 NA
ATOM    851  C5    G A  39      -9.089  -3.094  33.131  1.00  0.00     0.173 A 
ATOM    852  C2    G A  39      -9.155  -1.240  31.160  1.00  0.00     0.703 A 
ATOM    853  N1    G A  39      -8.549  -2.454  30.964  1.00  0.00    -0.153 N 
ATOM    854  N2    G A  39      -9.132  -0.395  30.127  1.00  0.00    -0.233 N 
ATOM    855  C6    G A  39      -8.464  -3.467  31.912  1.00  0.00     0.292 A 
ATOM    856  H1    G A  39      -8.132  -2.627  30.062  1.00  0.00     0.187 HD
ATOM    857  O6    G A  39      -7.894  -4.527  31.629  1.00  0.00    -0.265 OA
ATOM    858  H22   G A  39      -8.694  -0.663  29.255  1.00  0.00     0.174 HD
ATOM    859  H21   G A  39      -9.564   0.512  30.220  1.00  0.00     0.174 HD
ATOM    860  N7    G A  39      -9.234  -3.796  34.321  1.00  0.00    -0.234 NA
ATOM    861  C1'   T A  38      -7.586  -2.502  38.675  1.00  0.00     0.264 C 
ATOM    862  O2'   T A  38      -9.387  -1.213  39.580  1.00  0.00    -0.388 OA
ATOM    863  N1    T A  38      -7.121  -3.093  37.412  1.00  0.00    -0.280 N 
ATOM    864  C6    T A  38      -6.975  -4.455  37.267  1.00  0.00     0.104 A 
ATOM    865  C2    T A  38      -6.834  -2.232  36.367  1.00  0.00     0.331 A 
ATOM    866  C5    T A  38      -6.550  -5.011  36.128  1.00  0.00     0.092 A 
ATOM    867  C4    T A  38      -6.232  -4.188  35.005  1.00  0.00     0.250 A 
ATOM    868  N3    T A  38      -6.405  -2.840  35.216  1.00  0.00    -0.275 N 
ATOM    869  O4    T A  38      -5.816  -4.579  33.914  1.00  0.00    -0.268 OA
ATOM    870  H3    T A  38      -6.208  -2.233  34.434  1.00  0.00     0.173 HD
ATOM    871  O2    T A  38      -6.947  -1.023  36.454  1.00  0.00    -0.246 OA
ATOM    872 'HO2   T A  38      -9.936  -1.538  40.296  1.00  0.00     0.210 HD
ATOM    873  O2'   G A  37      -4.995  -5.459  41.291  1.00  0.00    -0.388 OA
ATOM    874  C1'   G A  37      -3.452  -5.749  39.485  1.00  0.00     0.262 C 
ATOM    875 'HO2   G A  37      -5.473  -6.162  41.730  1.00  0.00     0.210 HD
ATOM    876  N9    G A  37      -3.272  -5.544  38.051  1.00  0.00    -0.293 N 
ATOM    877  C8    G A  37      -3.116  -6.513  37.091  1.00  0.00     0.214 A 
ATOM    878  C4    G A  37      -3.220  -4.338  37.394  1.00  0.00     0.187 A 
ATOM    879  N7    G A  37      -2.961  -6.029  35.889  1.00  0.00    -0.234 NA
ATOM    880  C5    G A  37      -3.025  -4.653  36.065  1.00  0.00     0.173 A 
ATOM    881  C6    G A  37      -2.925  -3.597  35.122  1.00  0.00     0.292 A 
ATOM    882  O6    G A  37      -2.753  -3.668  33.899  1.00  0.00    -0.265 OA
ATOM    883  N1    G A  37      -3.044  -2.354  35.731  1.00  0.00    -0.153 N 
ATOM    884  C2    G A  37      -3.238  -2.150  37.073  1.00  0.00     0.703 A 
ATOM    885  H1    G A  37      -2.981  -1.541  35.139  1.00  0.00     0.187 HD
ATOM    886  N3    G A  37      -3.336  -3.121  37.963  1.00  0.00    -0.044 NA
ATOM    887  N2    G A  37      -3.329  -0.878  37.468  1.00  0.00    -0.233 N 
ATOM    888  H21   G A  37      -3.471  -0.672  38.446  1.00  0.00     0.174 HD
ATOM    889  H22   G A  37      -3.255  -0.127  36.795  1.00  0.00     0.174 HD
ATOM    890  O2'   C A  36      -0.636  -9.969  38.198  1.00  0.00    -0.388 OA
ATOM    891  C1'   C A  36       0.130  -9.647  35.953  1.00  0.00     0.264 C 
ATOM    892 'HO2   C A  36      -1.291 -10.571  38.554  1.00  0.00     0.210 HD
ATOM    893  N1    C A  36       0.023  -8.685  34.842  1.00  0.00    -0.278 N 
ATOM    894  C6    C A  36      -0.222  -9.104  33.564  1.00  0.00     0.102 A 
ATOM    895  C2    C A  36       0.176  -7.325  35.118  1.00  0.00     0.352 A 
ATOM    896  C5    C A  36      -0.322  -8.227  32.555  1.00  0.00     0.067 A 
ATOM    897  C4    C A  36      -0.165  -6.846  32.870  1.00  0.00     0.128 A 
ATOM    898  N4    C A  36      -0.254  -5.924  31.911  1.00  0.00    -0.384 N 
ATOM    899  N3    C A  36       0.074  -6.428  34.113  1.00  0.00    -0.177 NA
ATOM    900  H41   C A  36      -0.434  -6.196  30.956  1.00  0.00     0.157 HD
ATOM    901  H42   C A  36      -0.138  -4.948  32.147  1.00  0.00     0.157 HD
ATOM    902  O2    C A  36       0.404  -6.972  36.282  1.00  0.00    -0.244 OA
ATOM    903  C1'   G A  35       1.513 -12.654  30.656  1.00  0.00     0.262 C 
ATOM    904  O2'   G A  35       0.803 -14.503  32.008  1.00  0.00    -0.388 OA
ATOM    905  N9    G A  35       1.854 -11.236  30.713  1.00  0.00    -0.293 N 
ATOM    906  C4    G A  35       2.288 -10.544  31.818  1.00  0.00     0.187 A 
ATOM    907  C8    G A  35       1.802 -10.327  29.684  1.00  0.00     0.214 A 
ATOM    908  C5    G A  35       2.470  -9.246  31.389  1.00  0.00     0.173 A 
ATOM    909  N3    G A  35       2.482 -11.059  33.050  1.00  0.00    -0.044 NA
ATOM    910  N7    G A  35       2.160  -9.124  30.041  1.00  0.00    -0.234 NA
ATOM    911  C6    G A  35       2.920  -8.276  32.323  1.00  0.00     0.292 A 
ATOM    912  N1    G A  35       3.114  -8.831  33.583  1.00  0.00    -0.153 N 
ATOM    913  O6    G A  35       3.139  -7.073  32.142  1.00  0.00    -0.265 OA
ATOM    914  C2    G A  35       2.901 -10.146  33.906  1.00  0.00     0.703 A 
ATOM    915  H1    G A  35       3.436  -8.214  34.311  1.00  0.00     0.187 HD
ATOM    916  N2    G A  35       3.141 -10.487  35.174  1.00  0.00    -0.233 N 
ATOM    917  H21   G A  35       2.996 -11.446  35.457  1.00  0.00     0.174 HD
ATOM    918  H22   G A  35       3.458  -9.803  35.842  1.00  0.00     0.174 HD
ATOM    919 'HO2   G A  35      -0.073 -14.869  32.134  1.00  0.00     0.210 HD
ATOM    920  C1'   C A  33       1.961  -4.607  24.071  1.00  0.00     0.264 C 
ATOM    921  O2'   C A  33      -0.338  -5.261  24.037  1.00  0.00    -0.388 OA
ATOM    922  N1    C A  33       3.282  -5.215  24.303  1.00  0.00    -0.278 N 
ATOM    923  C2    C A  33       3.594  -6.414  23.658  1.00  0.00     0.352 A 
ATOM    924  C6    C A  33       4.191  -4.624  25.136  1.00  0.00     0.102 A 
ATOM    925  O2    C A  33       2.755  -6.929  22.905  1.00  0.00    -0.244 OA
ATOM    926  N3    C A  33       4.802  -6.984  23.866  1.00  0.00    -0.177 NA
ATOM    927  C4    C A  33       5.682  -6.400  24.679  1.00  0.00     0.128 A 
ATOM    928  C5    C A  33       5.393  -5.175  25.349  1.00  0.00     0.067 A 
ATOM    929 'HO2   C A  33      -0.972  -4.704  24.489  1.00  0.00     0.210 HD
BRANCH 847 930
ATOM    930  O2'   G A  39     -12.772   0.747  34.517  1.00  0.00    -0.388 OA
ATOM    931 'HO2   G A  39     -11.978   1.229  34.285  1.00  0.00     0.210 HD
ENDBRANCH 847 930
BRANCH 844 932
ATOM    932  O3'   G A  39     -14.418  -0.832  36.031  1.00  0.00    -0.279 OA
BRANCH 932 933
ATOM    933  P     G A  40     -14.810   0.357  37.040  1.00  0.00     0.408 P 
ATOM    934  OP2   G A  40     -16.127   0.906  36.629  1.00  0.00    -0.624 OA
ATOM    935  OP1   G A  40     -14.631  -0.160  38.421  1.00  0.00    -0.624 OA
BRANCH 933 936
ATOM    936  O5'   G A  40     -13.699   1.469  36.778  1.00  0.00    -0.287 OA
BRANCH 936 937
ATOM    937  C5'   G A  40     -14.034   2.855  36.773  1.00  0.00     0.216 C 
BRANCH 937 938
ATOM    938  C4'   G A  40     -14.271   3.331  35.358  1.00  0.00     0.180 C 
ATOM    939  C3'   G A  40     -13.161   4.183  34.757  1.00  0.00     0.198 C 
ATOM    940  C2'   G A  40     -13.911   4.990  33.705  1.00  0.00     0.199 C 
ATOM    941  C1'   G A  40     -15.222   5.272  34.438  1.00  0.00     0.262 C 
ATOM    942  O2'   G A  40     -14.186   4.202  32.560  1.00  0.00    -0.388 OA
ATOM    943  N9    G A  40     -15.209   6.515  35.202  1.00  0.00    -0.293 N 
ATOM    944  O4'   G A  40     -15.441   4.197  35.336  1.00  0.00    -0.353 OA
ATOM    945  C8    G A  40     -14.875   6.670  36.525  1.00  0.00     0.214 A 
ATOM    946  C4    G A  40     -15.526   7.768  34.735  1.00  0.00     0.187 A 
ATOM    947  N7    G A  40     -14.952   7.907  36.935  1.00  0.00    -0.234 NA
ATOM    948  C5    G A  40     -15.362   8.613  35.812  1.00  0.00     0.173 A 
ATOM    949  C6    G A  40     -15.618   9.999  35.640  1.00  0.00     0.292 A 
ATOM    950  N1    G A  40     -16.012  10.287  34.339  1.00  0.00    -0.153 N 
ATOM    951  O6    G A  40     -15.531  10.910  36.470  1.00  0.00    -0.265 OA
ATOM    952  C2    G A  40     -16.143   9.365  33.332  1.00  0.00     0.703 A 
ATOM    953  H1    G A  40     -16.215  11.251  34.126  1.00  0.00     0.187 HD
ATOM    954  N2    G A  40     -16.527   9.841  32.146  1.00  0.00    -0.233 N 
ATOM    955  N3    G A  40     -15.912   8.073  33.477  1.00  0.00    -0.044 NA
ATOM    956  H21   G A  40     -16.634   9.202  31.373  1.00  0.00     0.174 HD
ATOM    957  H22   G A  40     -16.707  10.826  32.017  1.00  0.00     0.174 HD
ATOM    958 'HO2   G A  40     -13.481   3.558  32.500  1.00  0.00     0.210 HD
BRANCH 939 959
ATOM    959  O3'   G A  40     -12.125   3.382  34.194  1.00  0.00    -0.279 OA
BRANCH 959 960
ATOM    960  P     A A  41     -10.667   3.375  34.874  1.00  0.00     0.408 P 
ATOM    961  OP2   A A  41     -10.690   2.437  36.025  1.00  0.00    -0.624 OA
ATOM    962  OP1   A A  41      -9.677   3.175  33.785  1.00  0.00    -0.624 OA
BRANCH 960 963
ATOM    963  O5'   A A  41     -10.497   4.858  35.433  1.00  0.00    -0.287 OA
BRANCH 963 964
ATOM    964  C5'   A A  41     -11.156   5.275  36.629  1.00  0.00     0.216 C 
BRANCH 964 965
ATOM    965  C4'   A A  41     -10.140   5.727  37.654  1.00  0.00     0.180 C 
ATOM    966  O4'   A A  41     -10.557   7.015  38.183  1.00  0.00    -0.353 OA
ATOM    967  C1'   A A  41     -10.343   7.051  39.583  1.00  0.00     0.262 C 
ATOM    968  C2'   A A  41      -9.562   5.795  39.965  1.00  0.00     0.199 C 
ATOM    969  N9    A A  41     -11.644   7.165  40.242  1.00  0.00    -0.294 N 
ATOM    970  O2'   A A  41      -8.178   6.078  39.874  1.00  0.00    -0.388 OA
ATOM    971  C3'   A A  41      -9.997   4.824  38.873  1.00  0.00     0.198 C 
ATOM    972 'HO2   A A  41      -7.753   5.271  39.582  1.00  0.00     0.210 HD
ATOM    973  O3'   A A  41      -9.031   3.799  38.648  1.00  0.00    -0.279 OA
ATOM    974  P     A A  42      -9.302   2.309  39.191  1.00  0.00     0.408 P 
ATOM    975  OP1   A A  42      -8.172   1.459  38.733  1.00  0.00    -0.624 OA
ATOM    976  O5'   A A  42      -9.203   2.447  40.776  1.00  0.00    -0.287 OA
ATOM    977  OP2   A A  42     -10.692   1.926  38.842  1.00  0.00    -0.624 OA
ATOM    978  C5'   A A  42      -7.941   2.613  41.423  1.00  0.00     0.216 C 
ATOM    979  C4'   A A  42      -8.130   3.218  42.796  1.00  0.00     0.180 C 
ATOM    980  C3'   A A  42      -8.870   2.345  43.802  1.00  0.00     0.198 C 
ATOM    981  O4'   A A  42      -8.943   4.419  42.672  1.00  0.00    -0.353 OA
ATOM    982  O3'   A A  42      -7.976   1.481  44.502  1.00  0.00    -0.279 OA
ATOM    983  C2'   A A  42      -9.518   3.374  44.721  1.00  0.00     0.199 C 
ATOM    984  P     T A  43      -8.534   0.135  45.184  1.00  0.00     0.408 P 
ATOM    985  OP1   T A  43      -7.389  -0.524  45.864  1.00  0.00    -0.624 OA
ATOM    986  O5'   T A  43      -9.545   0.654  46.302  1.00  0.00    -0.287 OA
ATOM    987  OP2   T A  43      -9.314  -0.617  44.168  1.00  0.00    -0.624 OA
ATOM    988  C5'   T A  43      -9.086   1.427  47.409  1.00  0.00     0.216 C 
ATOM    989  C4'   T A  43     -10.255   1.873  48.257  1.00  0.00     0.180 C 
ATOM    990  C3'   T A  43     -11.197   0.763  48.704  1.00  0.00     0.198 C 
ATOM    991  O4'   T A  43     -11.085   2.773  47.474  1.00  0.00    -0.353 OA
ATOM    992  O3'   T A  43     -10.751   0.166  49.919  1.00  0.00    -0.279 OA
ATOM    993  C2'   T A  43     -12.525   1.494  48.868  1.00  0.00     0.199 C 
ATOM    994  P     C A  44     -10.973  -1.408  50.167  1.00  0.00     0.408 P 
ATOM    995  OP2   C A  44     -10.603  -2.132  48.923  1.00  0.00    -0.624 OA
ATOM    996  OP1   C A  44     -10.293  -1.749  51.443  1.00  0.00    -0.624 OA
ATOM    997  O5'   C A  44     -12.545  -1.544  50.393  1.00  0.00    -0.287 OA
ATOM    998  C5'   C A  44     -13.297  -2.582  49.762  1.00  0.00     0.216 C 
ATOM    999  C4'   C A  44     -14.432  -1.988  48.962  1.00  0.00     0.180 C 
ATOM   1000  C3'   C A  44     -15.340  -3.000  48.278  1.00  0.00     0.198 C 
ATOM   1001  O4'   C A  44     -13.879  -1.193  47.876  1.00  0.00    -0.353 OA
ATOM   1002  O3'   C A  44     -16.383  -3.434  49.146  1.00  0.00    -0.279 OA
ATOM   1003  C2'   C A  44     -15.864  -2.217  47.083  1.00  0.00     0.199 C 
ATOM   1004  P     A A  45     -16.992  -4.915  48.990  1.00  0.00     0.408 P 
ATOM   1005  OP1   A A  45     -17.809  -5.184  50.202  1.00  0.00    -0.624 OA
ATOM   1006  OP2   A A  45     -15.898  -5.848  48.621  1.00  0.00    -0.624 OA
ATOM   1007  O5'   A A  45     -17.983  -4.794  47.747  1.00  0.00    -0.287 OA
ATOM   1008  C5'   A A  45     -19.104  -3.913  47.785  1.00  0.00     0.216 C 
ATOM   1009  C4'   A A  45     -20.006  -4.160  46.597  1.00  0.00     0.180 C 
ATOM   1010  O4'   A A  45     -19.449  -3.476  45.438  1.00  0.00    -0.353 OA
ATOM   1011  C3'   A A  45     -20.140  -5.617  46.166  1.00  0.00     0.198 C 
ATOM   1012  C1'   A A  45     -19.496  -4.331  44.310  1.00  0.00     0.262 C 
ATOM   1013  N9    A A  45     -18.129  -4.740  43.987  1.00  0.00    -0.294 N 
ATOM   1014  C2'   A A  45     -20.418  -5.490  44.674  1.00  0.00     0.199 C 
ATOM   1015  C4    A A  45     -17.654  -5.102  42.749  1.00  0.00     0.167 A 
ATOM   1016  C8    A A  45     -17.061  -4.841  44.842  1.00  0.00     0.214 A 
ATOM   1017  C5    A A  45     -16.317  -5.400  42.931  1.00  0.00     0.149 A 
ATOM   1018  N3    A A  45     -18.341  -5.158  41.595  1.00  0.00    -0.222 NA
ATOM   1019  C6    A A  45     -15.591  -5.801  41.795  1.00  0.00     0.155 A 
ATOM   1020  N7    A A  45     -15.952  -5.232  44.261  1.00  0.00    -0.236 NA
ATOM   1021  N6    A A  45     -14.296  -6.113  41.817  1.00  0.00    -0.382 N 
ATOM   1022  N1    A A  45     -16.251  -5.868  40.619  1.00  0.00    -0.222 NA
ATOM   1023  H62   A A  45     -13.825  -6.380  40.962  1.00  0.00     0.157 HD
ATOM   1024  H61   A A  45     -13.782  -6.069  42.684  1.00  0.00     0.157 HD
ATOM   1025  C2    A A  45     -17.552  -5.548  40.596  1.00  0.00     0.237 A 
ATOM   1026  O2'   A A  45     -21.758  -5.100  44.435  1.00  0.00    -0.388 OA
ATOM   1027 'HO2   A A  45     -22.252  -5.303  45.230  1.00  0.00     0.210 HD
ATOM   1028  O3'   A A  45     -21.193  -6.278  46.863  1.00  0.00    -0.279 OA
ATOM   1029  P     C A  46     -21.116  -7.867  47.104  1.00  0.00     0.408 P 
ATOM   1030  OP2   C A  46     -19.739  -8.211  47.539  1.00  0.00    -0.624 OA
ATOM   1031  O5'   C A  46     -21.346  -8.488  45.655  1.00  0.00    -0.287 OA
ATOM   1032  OP1   C A  46     -22.272  -8.243  47.957  1.00  0.00    -0.624 OA
ATOM   1033  C5'   C A  46     -22.568  -8.278  44.950  1.00  0.00     0.216 C 
ATOM   1034  C4'   C A  46     -22.414  -8.689  43.504  1.00  0.00     0.180 C 
ATOM   1035  O4'   C A  46     -21.374  -7.881  42.890  1.00  0.00    -0.353 OA
ATOM   1036  C3'   C A  46     -21.963 -10.126  43.278  1.00  0.00     0.198 C 
ATOM   1037  C1'   C A  46     -20.608  -8.677  42.003  1.00  0.00     0.264 C 
ATOM   1038  C2'   C A  46     -21.282 -10.047  41.917  1.00  0.00     0.199 C 
ATOM   1039  N1    C A  46     -19.222  -8.723  42.500  1.00  0.00    -0.278 N 
ATOM   1040  O2'   C A  46     -22.234 -10.018  40.871  1.00  0.00    -0.388 OA
ATOM   1041 'HO2   C A  46     -23.064 -10.313  41.245  1.00  0.00     0.210 HD
ATOM   1042  C2    C A  46     -18.185  -8.943  41.590  1.00  0.00     0.352 A 
ATOM   1043  C6    C A  46     -18.948  -8.549  43.829  1.00  0.00     0.102 A 
ATOM   1044  N3    C A  46     -16.910  -8.981  42.037  1.00  0.00    -0.177 NA
ATOM   1045  O2    C A  46     -18.459  -9.100  40.392  1.00  0.00    -0.244 OA
ATOM   1046  C4    C A  46     -16.653  -8.804  43.334  1.00  0.00     0.128 A 
ATOM   1047  N4    C A  46     -15.380  -8.845  43.727  1.00  0.00    -0.384 N 
ATOM   1048  C5    C A  46     -17.690  -8.577  44.285  1.00  0.00     0.067 A 
ATOM   1049  H42   C A  46     -14.654  -9.014  43.046  1.00  0.00     0.157 HD
ATOM   1050  H41   C A  46     -15.144  -8.716  44.699  1.00  0.00     0.157 HD
ATOM   1051  O3'   C A  46     -23.067 -11.027  43.283  1.00  0.00    -0.279 OA
ATOM   1052  P     G A  47     -22.826 -12.587  43.590  1.00  0.00     0.408 P 
ATOM   1053  OP1   G A  47     -24.117 -13.284  43.363  1.00  0.00    -0.624 OA
ATOM   1054  O5'   G A  47     -21.804 -13.050  42.459  1.00  0.00    -0.287 OA
ATOM   1055  OP2   G A  47     -22.149 -12.706  44.907  1.00  0.00    -0.624 OA
ATOM   1056  C5'   G A  47     -22.210 -13.149  41.094  1.00  0.00     0.216 C 
ATOM   1057  C4'   G A  47     -21.128 -13.817  40.276  1.00  0.00     0.180 C 
ATOM   1058  C3'   G A  47     -20.451 -15.013  40.932  1.00  0.00     0.198 C 
ATOM   1059  O4'   G A  47     -20.051 -12.870  40.062  1.00  0.00    -0.353 OA
ATOM   1060  C2'   G A  47     -19.091 -15.047  40.241  1.00  0.00     0.199 C 
ATOM   1061  O3'   G A  47     -21.190 -16.214  40.723  1.00  0.00    -0.279 OA
ATOM   1062  C1'   G A  47     -18.814 -13.558  40.026  1.00  0.00     0.262 C 
ATOM   1063  O2'   G A  47     -19.177 -15.678  38.977  1.00  0.00    -0.388 OA
ATOM   1064  N9    G A  47     -17.933 -12.973  41.033  1.00  0.00    -0.293 N 
ATOM   1065  C8    G A  47     -18.300 -12.379  42.216  1.00  0.00     0.214 A 
ATOM   1066  C4    G A  47     -16.563 -12.909  40.976  1.00  0.00     0.187 A 
ATOM   1067  N7    G A  47     -17.284 -11.939  42.908  1.00  0.00    -0.234 NA
ATOM   1068  C5    G A  47     -16.177 -12.269  42.135  1.00  0.00     0.173 A 
ATOM   1069  C6    G A  47     -14.792 -12.050  42.365  1.00  0.00     0.292 A 
ATOM   1070  O6    G A  47     -14.246 -11.502  43.331  1.00  0.00    -0.265 OA
ATOM   1071  N1    G A  47     -14.016 -12.546  41.323  1.00  0.00    -0.153 N 
ATOM   1072  C2    G A  47     -14.508 -13.172  40.205  1.00  0.00     0.703 A 
ATOM   1073  H1    G A  47     -13.016 -12.433  41.400  1.00  0.00     0.187 HD
ATOM   1074  N2    G A  47     -13.607 -13.582  39.311  1.00  0.00    -0.233 N 
ATOM   1075  N3    G A  47     -15.790 -13.384  39.979  1.00  0.00    -0.044 NA
ATOM   1076  H21   G A  47     -13.920 -14.048  38.473  1.00  0.00     0.174 HD
ATOM   1077  H22   G A  47     -12.619 -13.428  39.466  1.00  0.00     0.174 HD
ATOM   1078 'HO2   G A  47     -19.910 -16.293  39.032  1.00  0.00     0.210 HD
ATOM   1079  C1'   C A  44     -14.621  -1.419  46.690  1.00  0.00     0.264 C 
ATOM   1080  O2'   C A  44     -16.880  -1.312  47.473  1.00  0.00    -0.388 OA
ATOM   1081  N1    C A  44     -13.750  -2.108  45.720  1.00  0.00    -0.278 N 
ATOM   1082  C6    C A  44     -12.526  -2.587  46.095  1.00  0.00     0.102 A 
ATOM   1083  C2    C A  44     -14.196  -2.265  44.404  1.00  0.00     0.352 A 
ATOM   1084  C5    C A  44     -11.730  -3.212  45.219  1.00  0.00     0.067 A 
ATOM   1085  C4    C A  44     -12.208  -3.356  43.884  1.00  0.00     0.128 A 
ATOM   1086  N4    C A  44     -11.462  -3.971  42.967  1.00  0.00    -0.384 N 
ATOM   1087  N3    C A  44     -13.401  -2.892  43.508  1.00  0.00    -0.177 NA
ATOM   1088  H41   C A  44     -10.553  -4.335  43.216  1.00  0.00     0.157 HD
ATOM   1089  H42   C A  44     -11.806  -4.073  42.023  1.00  0.00     0.157 HD
ATOM   1090  O2    C A  44     -15.311  -1.827  44.089  1.00  0.00    -0.244 OA
ATOM   1091 'HO2   C A  44     -17.255  -1.654  48.286  1.00  0.00     0.210 HD
ATOM   1092  C1'   T A  43     -12.453   2.506  47.724  1.00  0.00     0.264 C 
ATOM   1093  O2'   T A  43     -12.570   2.199  50.095  1.00  0.00    -0.388 OA
ATOM   1094  N1    T A  43     -13.066   2.034  46.474  1.00  0.00    -0.280 N 
ATOM   1095  C2    T A  43     -14.341   2.476  46.172  1.00  0.00     0.331 A 
ATOM   1096  C6    T A  43     -12.393   1.182  45.630  1.00  0.00     0.104 A 
ATOM   1097  N3    T A  43     -14.854   2.003  44.992  1.00  0.00    -0.275 N 
ATOM   1098  O2    T A  43     -14.970   3.230  46.893  1.00  0.00    -0.246 OA
ATOM   1099  H3    T A  43     -15.785   2.306  44.753  1.00  0.00     0.173 HD
ATOM   1100  C4    T A  43     -14.239   1.153  44.103  1.00  0.00     0.250 A 
ATOM   1101  O4    T A  43     -14.828   0.820  43.076  1.00  0.00    -0.268 OA
ATOM   1102  C5    T A  43     -12.926   0.740  44.487  1.00  0.00     0.092 A 
ATOM   1103 'HO2   T A  43     -11.788   1.947  50.587  1.00  0.00     0.210 HD
ATOM   1104  C1'   A A  42      -9.897   4.462  43.719  1.00  0.00     0.262 C 
ATOM   1105  O2'   A A  42      -8.579   3.907  45.635  1.00  0.00    -0.388 OA
ATOM   1106  N9    A A  42     -11.227   4.290  43.136  1.00  0.00    -0.294 N 
ATOM   1107  C8    A A  42     -11.542   3.727  41.924  1.00  0.00     0.214 A 
ATOM   1108  C4    A A  42     -12.423   4.662  43.699  1.00  0.00     0.167 A 
ATOM   1109  N7    A A  42     -12.826   3.710  41.668  1.00  0.00    -0.236 NA
ATOM   1110  C5    A A  42     -13.397   4.301  42.787  1.00  0.00     0.149 A 
ATOM   1111  C6    A A  42     -14.730   4.581  43.132  1.00  0.00     0.155 A 
ATOM   1112  N6    A A  42     -15.771   4.294  42.351  1.00  0.00    -0.382 N 
ATOM   1113  N1    A A  42     -14.959   5.176  44.322  1.00  0.00    -0.222 NA
ATOM   1114  H61   A A  42     -15.611   3.848  41.456  1.00  0.00     0.157 HD
ATOM   1115  H62   A A  42     -16.708   4.518  42.650  1.00  0.00     0.157 HD
ATOM   1116  C2    A A  42     -13.911   5.467  45.105  1.00  0.00     0.237 A 
ATOM   1117  N3    A A  42     -12.615   5.255  44.889  1.00  0.00    -0.222 NA
ATOM   1118 'HO2   A A  42      -7.798   3.356  45.586  1.00  0.00     0.210 HD
ATOM   1119  C4    A A  41     -11.866   7.557  41.540  1.00  0.00     0.167 A 
ATOM   1120  C8    A A  41     -12.883   6.916  39.708  1.00  0.00     0.214 A 
ATOM   1121  N3    A A  41     -10.946   7.903  42.457  1.00  0.00    -0.222 NA
ATOM   1122  C5    A A  41     -13.238   7.524  41.713  1.00  0.00     0.149 A 
ATOM   1123  C2    A A  41     -11.531   8.228  43.608  1.00  0.00     0.237 A 
ATOM   1124  N1    A A  41     -12.832   8.246  43.922  1.00  0.00    -0.222 NA
ATOM   1125  C6    A A  41     -13.729   7.893  42.978  1.00  0.00     0.155 A 
ATOM   1126  N6    A A  41     -15.025   7.913  43.292  1.00  0.00    -0.382 N 
ATOM   1127  H61   A A  41     -15.714   7.654  42.600  1.00  0.00     0.157 HD
ATOM   1128  H62   A A  41     -15.312   8.187  44.220  1.00  0.00     0.157 HD
ATOM   1129  N7    A A  41     -13.870   7.117  40.547  1.00  0.00    -0.236 NA
BRANCH 1061 1130
ATOM   1130  P     T A  48     -21.521 -17.183  41.966  1.00  0.00     0.408 P 
ATOM   1131  OP1   T A  48     -21.028 -18.533  41.596  1.00  0.00    -0.624 OA
ATOM   1132  OP2   T A  48     -22.941 -17.008  42.368  1.00  0.00    -0.624 OA
BRANCH 1130 1133
ATOM   1133  O5'   T A  48     -20.592 -16.636  43.142  1.00  0.00    -0.287 OA
BRANCH 1133 1134
ATOM   1134  C5'   T A  48     -19.425 -17.347  43.556  1.00  0.00     0.216 C 
BRANCH 1134 1135
ATOM   1135  C4'   T A  48     -18.427 -16.393  44.167  1.00  0.00     0.180 C 
ATOM   1136  O4'   T A  48     -19.103 -15.140  44.458  1.00  0.00    -0.353 OA
ATOM   1137  C1'   T A  48     -18.645 -14.624  45.695  1.00  0.00     0.264 C 
ATOM   1138  N1    T A  48     -19.775 -14.607  46.636  1.00  0.00    -0.280 N 
ATOM   1139  C2'   T A  48     -17.474 -15.496  46.150  1.00  0.00     0.199 C 
ATOM   1140  C2    T A  48     -19.731 -13.700  47.680  1.00  0.00     0.331 A 
ATOM   1141  C6    T A  48     -20.843 -15.465  46.489  1.00  0.00     0.104 A 
ATOM   1142  O2    T A  48     -18.810 -12.921  47.843  1.00  0.00    -0.246 OA
ATOM   1143  N3    T A  48     -20.808 -13.738  48.527  1.00  0.00    -0.275 N 
ATOM   1144  H3    T A  48     -20.799 -13.083  49.294  1.00  0.00     0.173 HD
ATOM   1145  C4    T A  48     -21.901 -14.570  48.443  1.00  0.00     0.250 A 
ATOM   1146  O4    T A  48     -22.782 -14.496  49.298  1.00  0.00    -0.268 OA
ATOM   1147  C5    T A  48     -21.876 -15.473  47.337  1.00  0.00     0.092 A 
ATOM   1148  O2'   T A  48     -16.278 -14.966  45.611  1.00  0.00    -0.388 OA
ATOM   1149  C3'   T A  48     -17.828 -16.828  45.500  1.00  0.00     0.198 C 
ATOM   1150 'HO2   T A  48     -15.611 -15.649  45.700  1.00  0.00     0.210 HD
BRANCH 1149 1151
ATOM   1151  O3'   T A  48     -16.685 -17.662  45.320  1.00  0.00    -0.279 OA
BRANCH 1151 1152
ATOM   1152  P     C A  49     -15.575 -17.276  44.218  1.00  0.00     0.408 P 
ATOM   1153  OP1   C A  49     -14.355 -16.843  44.946  1.00  0.00    -0.624 OA
ATOM   1154  OP2   C A  49     -16.190 -16.370  43.213  1.00  0.00    -0.624 OA
BRANCH 1152 1155
ATOM   1155  O5'   C A  49     -15.248 -18.659  43.495  1.00  0.00    -0.287 OA
BRANCH 1155 1156
ATOM   1156  C5'   C A  49     -13.975 -19.288  43.644  1.00  0.00     0.216 C 
BRANCH 1156 1157
ATOM   1157  C4'   C A  49     -13.500 -19.822  42.312  1.00  0.00     0.180 C 
ATOM   1158  C3'   C A  49     -13.311 -18.785  41.212  1.00  0.00     0.198 C 
ATOM   1159  C2'   C A  49     -13.489 -19.621  39.950  1.00  0.00     0.199 C 
ATOM   1160  O2'   C A  49     -12.334 -20.390  39.674  1.00  0.00    -0.388 OA
ATOM   1161  C1'   C A  49     -14.614 -20.560  40.383  1.00  0.00     0.264 C 
ATOM   1162 'HO2   C A  49     -11.580 -19.810  39.798  1.00  0.00     0.210 HD
ATOM   1163  N1    C A  49     -15.957 -20.046  40.069  1.00  0.00    -0.278 N 
ATOM   1164  O4'   C A  49     -14.509 -20.727  41.786  1.00  0.00    -0.353 OA
ATOM   1165  C2    C A  49     -16.593 -20.499  38.915  1.00  0.00     0.352 A 
ATOM   1166  C6    C A  49     -16.571 -19.132  40.881  1.00  0.00     0.102 A 
ATOM   1167  O2    C A  49     -16.019 -21.336  38.208  1.00  0.00    -0.244 OA
ATOM   1168  N3    C A  49     -17.816 -20.017  38.598  1.00  0.00    -0.177 NA
ATOM   1169  C4    C A  49     -18.403 -19.119  39.391  1.00  0.00     0.128 A 
ATOM   1170  C5    C A  49     -17.783 -18.645  40.582  1.00  0.00     0.067 A 
ATOM   1171  N4    C A  49     -19.605 -18.666  39.033  1.00  0.00    -0.384 N 
ATOM   1172  H42   C A  49     -20.038 -19.003  38.184  1.00  0.00     0.157 HD
ATOM   1173  H41   C A  49     -20.086 -17.984  39.603  1.00  0.00     0.157 HD
BRANCH 1158 1174
ATOM   1174  O3'   C A  49     -12.031 -18.161  41.275  1.00  0.00    -0.279 OA
ATOM   1175  P     G A  50     -11.914 -16.606  41.681  1.00  0.00     0.408 P 
ATOM   1176  O5'   G A  50     -11.388 -15.893  40.356  1.00  0.00    -0.287 OA
ATOM   1177  OP1   G A  50     -10.854 -16.502  42.716  1.00  0.00    -0.624 OA
ATOM   1178  OP2   G A  50     -13.275 -16.086  41.974  1.00  0.00    -0.624 OA
ATOM   1179  C5'   G A  50     -10.035 -16.041  39.923  1.00  0.00     0.216 C 
ATOM   1180  C4'   G A  50      -9.995 -16.493  38.479  1.00  0.00     0.180 C 
ATOM   1181  C3'   G A  50     -10.167 -15.395  37.438  1.00  0.00     0.198 C 
ATOM   1182  O4'   G A  50     -11.108 -17.395  38.234  1.00  0.00    -0.353 OA
ATOM   1183  C2'   G A  50     -10.699 -16.168  36.237  1.00  0.00     0.199 C 
ATOM   1184  O3'   G A  50      -8.934 -14.737  37.155  1.00  0.00    -0.279 OA
ATOM   1185  C1'   G A  50     -11.595 -17.201  36.918  1.00  0.00     0.262 C 
ATOM   1186  O2'   G A  50      -9.654 -16.844  35.562  1.00  0.00    -0.388 OA
ATOM   1187  N9    G A  50     -12.994 -16.787  36.995  1.00  0.00    -0.293 N 
ATOM   1188  C4    G A  50     -13.801 -16.453  35.935  1.00  0.00     0.187 A 
ATOM   1189  C8    G A  50     -13.762 -16.649  38.124  1.00  0.00     0.214 A 
ATOM   1190  N3    G A  50     -13.441 -16.455  34.635  1.00  0.00    -0.044 NA
ATOM   1191  C5    G A  50     -15.020 -16.129  36.492  1.00  0.00     0.173 A 
ATOM   1192  C2    G A  50     -14.435 -16.083  33.850  1.00  0.00     0.703 A 
ATOM   1193  N2    G A  50     -14.247 -16.016  32.529  1.00  0.00    -0.233 N 
ATOM   1194  N1    G A  50     -15.684 -15.745  34.301  1.00  0.00    -0.153 N 
ATOM   1195  H21   G A  50     -13.344 -16.250  32.144  1.00  0.00     0.174 HD
ATOM   1196  H22   G A  50     -15.000 -15.721  31.923  1.00  0.00     0.174 HD
ATOM   1197  H1    G A  50     -16.368 -15.482  33.610  1.00  0.00     0.187 HD
ATOM   1198  C6    G A  50     -16.079 -15.736  35.632  1.00  0.00     0.292 A 
ATOM   1199  O6    G A  50     -17.236 -15.411  35.930  1.00  0.00    -0.265 OA
ATOM   1200  N7    G A  50     -14.981 -16.258  37.874  1.00  0.00    -0.234 NA
ATOM   1201 'HO2   G A  50      -8.866 -16.311  35.675  1.00  0.00     0.210 HD
ATOM   1202  P     G A  51      -8.930 -13.175  36.762  1.00  0.00     0.408 P 
ATOM   1203  O5'   G A  51      -9.843 -13.096  35.457  1.00  0.00    -0.287 OA
ATOM   1204  OP2   G A  51      -9.600 -12.417  37.850  1.00  0.00    -0.624 OA
ATOM   1205  OP1   G A  51      -7.540 -12.826  36.374  1.00  0.00    -0.624 OA
ATOM   1206  C5'   G A  51      -9.519 -13.849  34.288  1.00  0.00     0.216 C 
ATOM   1207  C4'   G A  51     -10.242 -13.289  33.082  1.00  0.00     0.180 C 
ATOM   1208  O4'   G A  51     -11.508 -13.980  32.905  1.00  0.00    -0.353 OA
ATOM   1209  C3'   G A  51     -10.664 -11.832  33.156  1.00  0.00     0.198 C 
ATOM   1210  C1'   G A  51     -12.438 -13.102  32.286  1.00  0.00     0.262 C 
ATOM   1211  N9    G A  51     -13.616 -12.987  33.141  1.00  0.00    -0.293 N 
ATOM   1212  C2'   G A  51     -11.725 -11.767  32.067  1.00  0.00     0.199 C 
ATOM   1213  C4    G A  51     -14.872 -12.593  32.745  1.00  0.00     0.187 A 
ATOM   1214  C8    G A  51     -13.696 -13.238  34.488  1.00  0.00     0.214 A 
ATOM   1215  N3    G A  51     -15.235 -12.249  31.492  1.00  0.00    -0.044 NA
ATOM   1216  C5    G A  51     -15.643 -12.628  33.887  1.00  0.00     0.173 A 
ATOM   1217  C2    G A  51     -16.510 -11.913  31.424  1.00  0.00     0.703 A 
ATOM   1218  N2    G A  51     -17.036 -11.542  30.254  1.00  0.00    -0.233 N 
ATOM   1219  N1    G A  51     -17.364 -11.916  32.497  1.00  0.00    -0.153 N 
ATOM   1220  H22   G A  51     -18.008 -11.277  30.188  1.00  0.00     0.174 HD
ATOM   1221  H21   G A  51     -16.446 -11.523  29.434  1.00  0.00     0.174 HD
ATOM   1222  C6    G A  51     -17.013 -12.266  33.796  1.00  0.00     0.292 A 
ATOM   1223  H1    G A  51     -18.322 -11.641  32.335  1.00  0.00     0.187 HD
ATOM   1224  O6    G A  51     -17.864 -12.234  34.691  1.00  0.00    -0.265 OA
ATOM   1225  N7    G A  51     -14.888 -13.038  34.979  1.00  0.00    -0.234 NA
ATOM   1226  O2'   G A  51     -11.140 -11.772  30.778  1.00  0.00    -0.388 OA
ATOM   1227 'HO2   G A  51     -10.315 -11.292  30.850  1.00  0.00     0.210 HD
ATOM   1228  O3'   G A  51      -9.584 -10.934  32.920  1.00  0.00    -0.279 OA
ATOM   1229  P     G A  52      -9.695  -9.407  33.413  1.00  0.00     0.408 P 
ATOM   1230  O5'   G A  52     -10.929  -8.823  32.590  1.00  0.00    -0.287 OA
ATOM   1231  OP2   G A  52     -10.053  -9.406  34.854  1.00  0.00    -0.624 OA
ATOM   1232  OP1   G A  52      -8.465  -8.707  32.963  1.00  0.00    -0.624 OA
ATOM   1233  C5'   G A  52     -10.801  -8.503  31.206  1.00  0.00     0.216 C 
ATOM   1234  C4'   G A  52     -12.148  -8.149  30.617  1.00  0.00     0.180 C 
ATOM   1235  O4'   G A  52     -13.127  -9.161  30.970  1.00  0.00    -0.353 OA
ATOM   1236  C3'   G A  52     -12.791  -6.870  31.128  1.00  0.00     0.198 C 
ATOM   1237  C1'   G A  52     -14.419  -8.575  30.990  1.00  0.00     0.262 C 
ATOM   1238  C2'   G A  52     -14.249  -7.074  30.736  1.00  0.00     0.199 C 
ATOM   1239  N9    G A  52     -15.050  -8.873  32.271  1.00  0.00    -0.293 N 
ATOM   1240  O2'   G A  52     -14.448  -6.826  29.357  1.00  0.00    -0.388 OA
ATOM   1241 'HO2   G A  52     -13.668  -6.368  29.044  1.00  0.00     0.210 HD
ATOM   1242  C8    G A  52     -14.451  -9.389  33.395  1.00  0.00     0.214 A 
ATOM   1243  C4    G A  52     -16.373  -8.683  32.592  1.00  0.00     0.187 A 
ATOM   1244  N7    G A  52     -15.276  -9.539  34.395  1.00  0.00    -0.234 NA
ATOM   1245  C5    G A  52     -16.497  -9.096  33.901  1.00  0.00     0.173 A 
ATOM   1246  C6    G A  52     -17.770  -9.017  34.526  1.00  0.00     0.292 A 
ATOM   1247  O6    G A  52     -18.087  -9.335  35.678  1.00  0.00    -0.265 OA
ATOM   1248  N1    G A  52     -18.732  -8.507  33.662  1.00  0.00    -0.153 N 
ATOM   1249  C2    G A  52     -18.503  -8.123  32.367  1.00  0.00     0.703 A 
ATOM   1250  H1    G A  52     -19.670  -8.412  34.020  1.00  0.00     0.187 HD
ATOM   1251  N2    G A  52     -19.558  -7.653  31.696  1.00  0.00    -0.233 N 
ATOM   1252  N3    G A  52     -17.325  -8.192  31.771  1.00  0.00    -0.044 NA
ATOM   1253  H21   G A  52     -19.443  -7.356  30.738  1.00  0.00     0.174 HD
ATOM   1254  H22   G A  52     -20.463  -7.592  32.142  1.00  0.00     0.174 HD
ATOM   1255  O3'   G A  52     -12.222  -5.707  30.533  1.00  0.00    -0.279 OA
ATOM   1256  P     G A  53     -12.368  -4.282  31.267  1.00  0.00     0.408 P 
ATOM   1257  OP2   G A  53     -12.009  -4.447  32.697  1.00  0.00    -0.624 OA
ATOM   1258  OP1   G A  53     -11.640  -3.285  30.439  1.00  0.00    -0.624 OA
ATOM   1259  O5'   G A  53     -13.925  -3.956  31.176  1.00  0.00    -0.287 OA
ATOM   1260  C5'   G A  53     -14.568  -3.799  29.912  1.00  0.00     0.216 C 
ATOM   1261  C4'   G A  53     -16.049  -3.559  30.102  1.00  0.00     0.180 C 
ATOM   1262  C3'   G A  53     -16.427  -2.436  31.053  1.00  0.00     0.198 C 
ATOM   1263  O4'   G A  53     -16.660  -4.726  30.713  1.00  0.00    -0.353 OA
ATOM   1264  O3'   G A  53     -16.317  -1.156  30.437  1.00  0.00    -0.279 OA
ATOM   1265  C2'   G A  53     -17.866  -2.794  31.406  1.00  0.00     0.199 C 
ATOM   1266  P     T A  54     -16.171   0.160  31.350  1.00  0.00     0.408 P 
ATOM   1267  OP2   T A  54     -15.128  -0.089  32.376  1.00  0.00    -0.624 OA
ATOM   1268  O5'   T A  54     -17.578   0.276  32.089  1.00  0.00    -0.287 OA
ATOM   1269  OP1   T A  54     -16.035   1.321  30.433  1.00  0.00    -0.624 OA
ATOM   1270  C5'   T A  54     -18.777   0.504  31.351  1.00  0.00     0.216 C 
ATOM   1271  C4'   T A  54     -19.966   0.546  32.282  1.00  0.00     0.180 C 
ATOM   1272  O4'   T A  54     -20.120  -0.747  32.925  1.00  0.00    -0.353 OA
ATOM   1273  C3'   T A  54     -19.860   1.515  33.450  1.00  0.00     0.198 C 
ATOM   1274  C1'   T A  54     -20.659  -0.568  34.224  1.00  0.00     0.264 C 
ATOM   1275  N1    T A  54     -19.748  -1.187  35.197  1.00  0.00    -0.280 N 
ATOM   1276  C2'   T A  54     -20.860   0.933  34.442  1.00  0.00     0.199 C 
ATOM   1277  C6    T A  54     -18.423  -1.413  34.898  1.00  0.00     0.104 A 
ATOM   1278  C2    T A  54     -20.268  -1.534  36.430  1.00  0.00     0.331 A 
ATOM   1279  C5    T A  54     -17.579  -1.974  35.770  1.00  0.00     0.092 A 
ATOM   1280  C4    T A  54     -18.042  -2.357  37.067  1.00  0.00     0.250 A 
ATOM   1281  N3    T A  54     -19.373  -2.103  37.297  1.00  0.00    -0.275 N 
ATOM   1282  O4    T A  54     -17.362  -2.865  37.958  1.00  0.00    -0.268 OA
ATOM   1283  H3    T A  54     -19.735  -2.359  38.204  1.00  0.00     0.173 HD
ATOM   1284  O2    T A  54     -21.433  -1.352  36.734  1.00  0.00    -0.246 OA
ATOM   1285  O2'   T A  54     -22.187   1.268  34.085  1.00  0.00    -0.388 OA
ATOM   1286 'HO2   T A  54     -22.129   1.972  33.438  1.00  0.00     0.210 HD
ATOM   1287  O2'   G A  53     -18.751  -2.434  30.362  1.00  0.00    -0.388 OA
ATOM   1288  C1'   G A  53     -17.786  -4.320  31.473  1.00  0.00     0.262 C 
ATOM   1289 'HO2   G A  53     -18.259  -1.866  29.768  1.00  0.00     0.210 HD
ATOM   1290  N9    G A  53     -17.639  -4.833  32.832  1.00  0.00    -0.293 N 
ATOM   1291  C8    G A  53     -16.501  -5.339  33.413  1.00  0.00     0.214 A 
ATOM   1292  C4    G A  53     -18.624  -4.901  33.789  1.00  0.00     0.187 A 
ATOM   1293  N7    G A  53     -16.680  -5.719  34.649  1.00  0.00    -0.234 NA
ATOM   1294  C5    G A  53     -18.018  -5.447  34.900  1.00  0.00     0.173 A 
ATOM   1295  C6    G A  53     -18.795  -5.645  36.073  1.00  0.00     0.292 A 
ATOM   1296  O6    G A  53     -18.444  -6.114  37.162  1.00  0.00    -0.265 OA
ATOM   1297  N1    G A  53     -20.109  -5.229  35.892  1.00  0.00    -0.153 N 
ATOM   1298  C2    G A  53     -20.614  -4.695  34.735  1.00  0.00     0.703 A 
ATOM   1299  H1    G A  53     -20.738  -5.331  36.674  1.00  0.00     0.187 HD
ATOM   1300  N3    G A  53     -19.905  -4.506  33.637  1.00  0.00    -0.044 NA
ATOM   1301  N2    G A  53     -21.903  -4.354  34.758  1.00  0.00    -0.233 N 
ATOM   1302  H22   G A  53     -22.456  -4.492  35.594  1.00  0.00     0.174 HD
ATOM   1303  H21   G A  53     -22.326  -3.955  33.932  1.00  0.00     0.174 HD
BRANCH 1273 1304
ATOM   1304  O3'   T A  54     -20.187   2.848  33.064  1.00  0.00    -0.279 OA
BRANCH 1304 1305
ATOM   1305  P     C A  55     -19.351   4.082  33.668  1.00  0.00     0.408 P 
ATOM   1306  OP2   C A  55     -18.213   4.369  32.759  1.00  0.00    -0.624 OA
ATOM   1307  OP1   C A  55     -20.323   5.159  33.990  1.00  0.00    -0.624 OA
BRANCH 1305 1308
ATOM   1308  O5'   C A  55     -18.762   3.518  35.037  1.00  0.00    -0.287 OA
BRANCH 1308 1309
ATOM   1309  C5'   C A  55     -19.414   3.778  36.280  1.00  0.00     0.216 C 
BRANCH 1309 1310
ATOM   1310  C4'   C A  55     -18.422   3.697  37.417  1.00  0.00     0.180 C 
ATOM   1311  O4'   C A  55     -17.902   5.025  37.688  1.00  0.00    -0.353 OA
ATOM   1312  C1'   C A  55     -17.683   5.178  39.079  1.00  0.00     0.264 C 
ATOM   1313  N1    C A  55     -18.507   6.301  39.558  1.00  0.00    -0.278 N 
ATOM   1314  C2'   C A  55     -18.012   3.845  39.753  1.00  0.00     0.199 C 
ATOM   1315  C2    C A  55     -18.051   7.057  40.641  1.00  0.00     0.352 A 
ATOM   1316  C6    C A  55     -19.698   6.603  38.959  1.00  0.00     0.102 A 
ATOM   1317  N3    C A  55     -18.799   8.090  41.089  1.00  0.00    -0.177 NA
ATOM   1318  O2    C A  55     -16.970   6.761  41.168  1.00  0.00    -0.244 OA
ATOM   1319  C4    C A  55     -19.957   8.379  40.495  1.00  0.00     0.128 A 
ATOM   1320  N4    C A  55     -20.658   9.408  40.970  1.00  0.00    -0.384 N 
ATOM   1321  C5    C A  55     -20.448   7.626  39.389  1.00  0.00     0.067 A 
ATOM   1322  H42   C A  55     -20.298   9.937  41.752  1.00  0.00     0.157 HD
ATOM   1323  H41   C A  55     -21.540   9.661  40.550  1.00  0.00     0.157 HD
ATOM   1324  C3'   C A  55     -18.988   3.236  38.752  1.00  0.00     0.198 C 
BRANCH 1314 1325
ATOM   1325  O2'   C A  55     -16.825   3.079  39.841  1.00  0.00    -0.388 OA
ATOM   1326 'HO2   C A  55     -17.072   2.167  39.687  1.00  0.00     0.210 HD
ENDBRANCH 1314 1325
BRANCH 1324 1327
ATOM   1327  O3'   C A  55     -19.036   1.814  38.838  1.00  0.00    -0.279 OA
BRANCH 1327 1328
ATOM   1328  P     A A  56     -20.116   1.107  39.798  1.00  0.00     0.408 P 
ATOM   1329  O5'   A A  56     -19.552   1.357  41.267  1.00  0.00    -0.287 OA
ATOM   1330  C5'   A A  56     -18.301   0.808  41.677  1.00  0.00     0.216 C 
ATOM   1331  C4'   A A  56     -18.125   0.967  43.170  1.00  0.00     0.180 C 
ATOM   1332  O4'   A A  56     -17.612   2.297  43.445  1.00  0.00    -0.353 OA
ATOM   1333  C3'   A A  56     -19.402   0.876  43.994  1.00  0.00     0.182 C 
ATOM   1334  C1'   A A  56     -18.175   2.789  44.647  1.00  0.00     0.262 C 
ATOM   1335  N9    A A  56     -18.912   4.014  44.343  1.00  0.00    -0.294 N 
ATOM   1336  C2'   A A  56     -19.048   1.681  45.240  1.00  0.00     0.198 C 
ATOM   1337  C4    A A  56     -18.892   5.179  45.072  1.00  0.00     0.167 A 
ATOM   1338  C8    A A  56     -19.758   4.247  43.286  1.00  0.00     0.214 A 
ATOM   1339  C5    A A  56     -19.737   6.051  44.412  1.00  0.00     0.149 A 
ATOM   1340  N3    A A  56     -18.199   5.425  46.197  1.00  0.00    -0.222 NA
ATOM   1341  C6    A A  56     -19.893   7.332  44.969  1.00  0.00     0.155 A 
ATOM   1342  N7    A A  56     -20.278   5.451  43.283  1.00  0.00    -0.236 NA
ATOM   1343  N1    A A  56     -19.211   7.612  46.100  1.00  0.00    -0.222 NA
ATOM   1344  N6    A A  56     -20.675   8.277  44.448  1.00  0.00    -0.382 N 
ATOM   1345  C2    A A  56     -18.426   6.663  46.627  1.00  0.00     0.237 A 
ATOM   1346  H61   A A  56     -21.197   8.091  43.604  1.00  0.00     0.157 HD
ATOM   1347  H62   A A  56     -20.737   9.179  44.897  1.00  0.00     0.157 HD
ATOM   1348  O2'   A A  56     -18.264   0.916  46.138  1.00  0.00    -0.388 OA
ATOM   1349 'HO2   A A  56     -18.491  -0.003  45.993  1.00  0.00     0.210 HD
ATOM   1350  O3'   A A  56     -19.755  -0.478  44.299  1.00  0.00    -0.390 OA
ATOM   1351 'HO3   A A  56     -19.822  -0.947  43.463  1.00  0.00     0.210 HD
ATOM   1352  OP2   A A  56     -21.407   1.827  39.667  1.00  0.00    -0.624 OA
ATOM   1353  OP1   A A  56     -20.059  -0.353  39.528  1.00  0.00    -0.624 OA
ENDBRANCH 1327 1328
ENDBRANCH 1324 1327
ENDBRANCH 1309 1310
ENDBRANCH 1308 1309
ENDBRANCH 1305 1308
ENDBRANCH 1304 1305
ENDBRANCH 1273 1304
ENDBRANCH 1158 1174
ENDBRANCH 1156 1157
ENDBRANCH 1155 1156
ENDBRANCH 1152 1155
ENDBRANCH 1151 1152
ENDBRANCH 1149 1151
ENDBRANCH 1134 1135
ENDBRANCH 1133 1134
ENDBRANCH 1130 1133
ENDBRANCH 1061 1130
ENDBRANCH 964 965
ENDBRANCH 963 964
ENDBRANCH 960 963
ENDBRANCH 959 960
ENDBRANCH 939 959
ENDBRANCH 937 938
ENDBRANCH 936 937
ENDBRANCH 933 936
ENDBRANCH 932 933
ENDBRANCH 844 932
BRANCH 927 1354
ATOM   1354  N4    C A  33       6.859  -6.998  24.850  1.00  0.00    -0.384 N 
ATOM   1355  H42   C A  33       7.366  -7.345  24.048  1.00  0.00     0.157 HD
ATOM   1356  H41   C A  33       7.245  -7.106  25.777  1.00  0.00     0.157 HD
ENDBRANCH 927 1354
ENDBRANCH 742 743
ENDBRANCH 741 742
ENDBRANCH 738 741
ENDBRANCH 737 738
ENDBRANCH 703 737
ENDBRANCH 665 666
ENDBRANCH 664 665
ENDBRANCH 661 664
ENDBRANCH 660 661
ENDBRANCH 640 660
ENDBRANCH 638 639
ENDBRANCH 637 638
ENDBRANCH 634 637
ENDBRANCH 633 634
ENDBRANCH 588 633
BRANCH 561 1357
ATOM   1357  O2'   A A  24      -5.331   9.973  21.112  1.00  0.00    -0.388 OA
ATOM   1358 'HO2   A A  24      -4.877  10.262  20.320  1.00  0.00     0.210 HD
ENDBRANCH 561 1357
BRANCH 631 1359
ATOM   1359  N9    A A  24      -4.192   6.503  21.009  1.00  0.00    -0.294 N 
ATOM   1360  C8    A A  24      -5.160   5.688  21.543  1.00  0.00     0.214 A 
ATOM   1361  N7    A A  24      -4.721   4.500  21.882  1.00  0.00    -0.236 NA
ATOM   1362  C5    A A  24      -3.373   4.534  21.548  1.00  0.00     0.149 A 
ATOM   1363  C4    A A  24      -3.035   5.763  21.010  1.00  0.00     0.167 A 
ATOM   1364  C6    A A  24      -2.346   3.581  21.659  1.00  0.00     0.155 A 
ATOM   1365  N3    A A  24      -1.822   6.146  20.578  1.00  0.00    -0.222 NA
ATOM   1366  C2    A A  24      -0.937   5.163  20.732  1.00  0.00     0.237 A 
ATOM   1367  N1    A A  24      -1.116   3.934  21.232  1.00  0.00    -0.222 NA
ATOM   1368  N6    A A  24      -2.520   2.358  22.156  1.00  0.00    -0.382 N 
ATOM   1369  H62   A A  24      -1.733   1.725  22.207  1.00  0.00     0.157 HD
ATOM   1370  H61   A A  24      -3.431   2.068  22.482  1.00  0.00     0.157 HD
ENDBRANCH 631 1359
ENDBRANCH 557 558
ENDBRANCH 556 557
ENDBRANCH 553 556
ENDBRANCH 552 553
ENDBRANCH 534 552
BRANCH 535 1371
ATOM   1371  O2'   G A  23       4.019   8.368  23.067  1.00  0.00    -0.388 OA
ATOM   1372 'HO2   G A  23       3.626   9.220  22.877  1.00  0.00     0.210 HD
ENDBRANCH 535 1371
ENDBRANCH 532 533
ENDBRANCH 531 532
ENDBRANCH 499 531
ENDBRANCH 484 485
ENDBRANCH 483 484
ENDBRANCH 480 483
ENDBRANCH 479 480
ENDBRANCH 465 479
BRANCH 467 1373
ATOM   1373  O2'   C A  20      -7.367   9.420  37.659  1.00  0.00    -0.388 OA
ATOM   1374 'HO2   C A  20      -7.466   9.996  36.901  1.00  0.00     0.210 HD
ENDBRANCH 467 1373
ENDBRANCH 462 463
ENDBRANCH 459 462
ENDBRANCH 458 459
ENDBRANCH 446 458
ENDBRANCH 441 442
ENDBRANCH 425 441
ENDBRANCH 299 300
ENDBRANCH 298 299
ENDBRANCH 295 298
ENDBRANCH 294 295
ENDBRANCH 291 294
ENDBRANCH 272 273
ENDBRANCH 271 272
ENDBRANCH 268 271
ENDBRANCH 267 268
ENDBRANCH 254 267
ENDBRANCH 249 250
ENDBRANCH 248 249
ENDBRANCH 245 248
ENDBRANCH 244 245
ENDBRANCH 227 244
ENDBRANCH 222 223
ENDBRANCH 206 222
ENDBRANCH 195 196
ENDBRANCH 194 195
ENDBRANCH 191 194
ENDBRANCH 190 191
ENDBRANCH 179 190
ENDBRANCH 173 174
ENDBRANCH 172 173
ENDBRANCH 169 172
ENDBRANCH 168 169
ENDBRANCH 167 168
TORSDOF 435
ENDMDL
MODEL 2
REMARK VINA RESULT:      -2.7      4.084      8.248
REMARK WARNING: 32 MAX_TORS EXCEEDED!!!
REMARK  104 active torsions:
REMARK  status: ('A' for Active; 'I' for Inactive)
REMARK       I    between atoms: O5'_2  and  C5'_3 
REMARK       I    between atoms: C5'_3  and  C4'_4 
REMARK       I    between atoms: C1'_6  and  N9_7 
REMARK       I    between atoms: C2_10  and  N2_11 
REMARK       I    between atoms: C2'_21  and  O2'_22 
REMARK       I    between atoms: C3'_24  and  O3'_25 
REMARK       I    between atoms: O3'_25  and  P_26 
REMARK       I    between atoms: P_26  and  O5'_29 
REMARK       I    between atoms: O5'_29  and  C5'_30 
REMARK       I    between atoms: C5'_30  and  C4'_31 
REMARK       I    between atoms: C1'_33  and  N9_34 
REMARK       I    between atoms: C6_39  and  N6_40 
REMARK       I    between atoms: C2'_46  and  O2'_47 
REMARK       I    between atoms: C3'_49  and  O3'_50 
REMARK       I    between atoms: O3'_50  and  P_51 
REMARK       I    between atoms: P_51  and  O5'_54 
REMARK       I    between atoms: O5'_54  and  C5'_55 
REMARK       I    between atoms: C5'_55  and  C4'_56 
REMARK       I    between atoms: C1'_58  and  N1_59 
REMARK       I    between atoms: C4_64  and  N4_65 
REMARK       I    between atoms: C2'_69  and  O2'_70 
REMARK       I    between atoms: C3'_72  and  O3'_73 
REMARK       I    between atoms: O3'_73  and  P_74 
REMARK       I    between atoms: P_74  and  O5'_77 
REMARK       I    between atoms: O5'_77  and  C5'_78 
REMARK       I    between atoms: C5'_78  and  C4'_79 
REMARK       I    between atoms: C1'_81  and  N1_82 
REMARK       I    between atoms: C4_87  and  N4_88 
REMARK       I    between atoms: C2'_92  and  O2'_93 
REMARK       I    between atoms: C3'_95  and  O3'_96 
REMARK       I    between atoms: O3'_96  and  P_97 
REMARK       I    between atoms: P_97  and  O5'_100 
REMARK       I    between atoms: O5'_100  and  C5'_101 
REMARK       I    between atoms: C5'_101  and  C4'_102 
REMARK       I    between atoms: C1'_104  and  N1_105 
REMARK       I    between atoms: C2'_114  and  O2'_115 
REMARK       I    between atoms: C3'_117  and  O3'_118 
REMARK       I    between atoms: O3'_118  and  P_119 
REMARK       I    between atoms: P_119  and  O5'_122 
REMARK       I    between atoms: O5'_122  and  C5'_123 
REMARK       I    between atoms: C5'_123  and  C4'_124 
REMARK       I    between atoms: C1'_126  and  N1_127 
REMARK       I    between atoms: C4_132  and  N4_133 
REMARK       I    between atoms: C2'_137  and  O2'_138 
REMARK       I    between atoms: C3'_140  and  O3'_141 
REMARK       I    between atoms: O3'_141  and  P_142 
REMARK       I    between atoms: P_142  and  O5'_145 
REMARK       I    between atoms: O5'_145  and  C5'_146 
REMARK       I    between atoms: C5'_146  and  C4'_147 
REMARK       I    between atoms: C1'_149  and  N9_150 
REMARK       I    between atoms: C2_153  and  N2_154 
REMARK       I    between atoms: C2'_164  and  O2'_165 
REMARK    1  A    between atoms: C3'_167  and  O3'_168 
REMARK    2  A    between atoms: O3'_168  and  P_169 
REMARK    3  A    between atoms: P_169  and  O5'_172 
REMARK    4  A    between atoms: O5'_172  and  C5'_173 
REMARK    5  A    between atoms: C5'_173  and  C4'_174 
REMARK       I    between atoms: C1'_176  and  N1_177 
REMARK    6  A    between atoms: C2'_186  and  O2'_187 
REMARK    7  A    between atoms: C3'_189  and  O3'_190 
REMARK    8  A    between atoms: O3'_190  and  P_191 
REMARK    9  A    between atoms: P_191  and  O5'_194 
REMARK   10  A    between atoms: O5'_194  and  C5'_195 
REMARK   11  A    between atoms: C5'_195  and  C4'_196 
REMARK       I    between atoms: C1'_198  and  N9_199 
REMARK       I    between atoms: C2_202  and  N2_203 
REMARK   12  A    between atoms: C2'_213  and  O2'_214 
REMARK       I    between atoms: C3'_216  and  O3'_217 
REMARK       I    between atoms: O3'_217  and  P_218 
REMARK       I    between atoms: P_218  and  O5'_221 
REMARK   13  A    between atoms: O5'_221  and  C5'_222 
REMARK   14  A    between atoms: C5'_222  and  C4'_223 
REMARK   15  A    between atoms: C1'_225  and  N9_226 
REMARK       I    between atoms: C2_229  and  N2_230 
REMARK   16  A    between atoms: C2'_240  and  O2'_241 
REMARK   17  A    between atoms: C3'_243  and  O3'_244 
REMARK   18  A    between atoms: O3'_244  and  P_245 
REMARK   19  A    between atoms: P_245  and  O5'_248 
REMARK   20  A    between atoms: O5'_248  and  C5'_249 
REMARK   21  A    between atoms: C5'_249  and  C4'_250 
REMARK   22  A    between atoms: C1'_252  and  N1_253 
REMARK       I    between atoms: C4_258  and  N4_259 
REMARK   23  A    between atoms: C2'_263  and  O2'_264 
REMARK   24  A    between atoms: C3'_266  and  O3'_267 
REMARK   25  A    between atoms: O3'_267  and  P_268 
REMARK   26  A    between atoms: P_268  and  O5'_271 
REMARK   27  A    between atoms: O5'_271  and  C5'_272 
REMARK   28  A    between atoms: C5'_272  and  C4'_273 
REMARK       I    between atoms: C1'_275  and  N9_276 
REMARK       I    between atoms: C2_279  and  N2_280 
REMARK   29  A    between atoms: C2'_290  and  O2'_291 
REMARK   30  A    between atoms: C3'_293  and  O3'_294 
REMARK   31  A    between atoms: O3'_294  and  P_295 
REMARK   32  A    between atoms: P_295  and  O5'_298 
REMARK   33  A    between atoms: O5'_298  and  C5'_299 
REMARK   34  A    between atoms: C5'_299  and  C4'_300 
REMARK       I    between atoms: C1'_302  and  N1_303 
REMARK       I    between atoms: C2'_312  and  O2'_313 
REMARK       I    between atoms: C3'_315  and  O3'_316 
REMARK       I    between atoms: O3'_316  and  P_317 
REMARK       I    between atoms: P_317  and  O5'_320 
REMARK       I    between atoms: O5'_320  and  C5'_321 
REMARK       I    between atoms: C5'_321  and  C4'_322 
REMARK       I    between atoms: C1'_324  and  N1_325 
REMARK       I    between atoms: C4_330  and  N4_331 
REMARK       I    between atoms: C2'_335  and  O2'_336 
REMARK       I    between atoms: C3'_338  and  O3'_339 
REMARK       I    between atoms: O3'_339  and  P_340 
REMARK       I    between atoms: P_340  and  O5'_343 
REMARK       I    between atoms: O5'_343  and  C5'_344 
REMARK       I    between atoms: C5'_344  and  C4'_345 
REMARK       I    between atoms: C1'_347  and  N1_348 
REMARK       I    between atoms: C2'_357  and  O2'_358 
REMARK       I    between atoms: C3'_360  and  O3'_361 
REMARK       I    between atoms: O3'_361  and  P_362 
REMARK       I    between atoms: P_362  and  O5'_365 
REMARK       I    between atoms: O5'_365  and  C5'_366 
REMARK       I    between atoms: C5'_366  and  C4'_367 
REMARK       I    between atoms: C1'_369  and  N9_370 
REMARK       I    between atoms: C2_373  and  N2_374 
REMARK       I    between atoms: C2'_384  and  O2'_385 
REMARK       I    between atoms: C3'_387  and  O3'_388 
REMARK       I    between atoms: O3'_388  and  P_389 
REMARK       I    between atoms: P_389  and  O5'_392 
REMARK       I    between atoms: O5'_392  and  C5'_393 
REMARK       I    between atoms: C5'_393  and  C4'_394 
REMARK       I    between atoms: C1'_396  and  N9_397 
REMARK       I    between atoms: C6_402  and  N6_403 
REMARK       I    between atoms: C2'_409  and  O2'_410 
REMARK       I    between atoms: C3'_412  and  O3'_413 
REMARK       I    between atoms: O3'_413  and  P_414 
REMARK       I    between atoms: P_414  and  O5'_417 
REMARK       I    between atoms: O5'_417  and  C5'_418 
REMARK       I    between atoms: C5'_418  and  C4'_419 
REMARK       I    between atoms: C1'_421  and  N1_422 
REMARK       I    between atoms: C4_427  and  N4_428 
REMARK       I    between atoms: C2'_432  and  O2'_433 
REMARK       I    between atoms: C3'_435  and  O3'_436 
REMARK       I    between atoms: O3'_436  and  P_437 
REMARK       I    between atoms: P_437  and  O5'_440 
REMARK   35  A    between atoms: O5'_440  and  C5'_441 
REMARK   36  A    between atoms: C5'_441  and  C4'_442 
REMARK   37  A    between atoms: C1'_444  and  N1_445 
REMARK   38  A    between atoms: C2'_454  and  O2'_455 
REMARK   39  A    between atoms: C3'_457  and  O3'_458 
REMARK   40  A    between atoms: O3'_458  and  P_459 
REMARK   41  A    between atoms: P_459  and  O5'_462 
REMARK   42  A    between atoms: O5'_462  and  C5'_463 
REMARK       I    between atoms: C5'_463  and  C4'_464 
REMARK       I    between atoms: C1'_466  and  N1_467 
REMARK       I    between atoms: C4_472  and  N4_473 
REMARK   43  A    between atoms: C2'_477  and  O2'_478 
REMARK   44  A    between atoms: C3'_480  and  O3'_481 
REMARK   45  A    between atoms: O3'_481  and  P_482 
REMARK   46  A    between atoms: P_482  and  O5'_485 
REMARK   47  A    between atoms: O5'_485  and  C5'_486 
REMARK   48  A    between atoms: C5'_486  and  C4'_487 
REMARK       I    between atoms: C1'_489  and  N1_490 
REMARK       I    between atoms: C4_495  and  N4_496 
REMARK       I    between atoms: C2'_500  and  O2'_501 
REMARK       I    between atoms: C3'_503  and  O3'_504 
REMARK       I    between atoms: O3'_504  and  P_505 
REMARK       I    between atoms: P_505  and  O5'_508 
REMARK       I    between atoms: O5'_508  and  C5'_509 
REMARK       I    between atoms: C5'_509  and  C4'_510 
REMARK       I    between atoms: C1'_512  and  N9_513 
REMARK       I    between atoms: C6_518  and  N6_519 
REMARK       I    between atoms: C2'_525  and  O2'_526 
REMARK       I    between atoms: C3'_528  and  O3'_529 
REMARK       I    between atoms: O3'_529  and  P_530 
REMARK   49  A    between atoms: P_530  and  O5'_533 
REMARK   50  A    between atoms: O5'_533  and  C5'_534 
REMARK   51  A    between atoms: C5'_534  and  C4'_535 
REMARK       I    between atoms: C1'_537  and  N9_538 
REMARK       I    between atoms: C2_541  and  N2_542 
REMARK   52  A    between atoms: C2'_552  and  O2'_553 
REMARK   53  A    between atoms: C3'_555  and  O3'_556 
REMARK   54  A    between atoms: O3'_556  and  P_557 
REMARK   55  A    between atoms: P_557  and  O5'_560 
REMARK   56  A    between atoms: O5'_560  and  C5'_561 
REMARK   57  A    between atoms: C5'_561  and  C4'_562 
REMARK   58  A    between atoms: C1'_564  and  N9_565 
REMARK       I    between atoms: C6_570  and  N6_571 
REMARK   59  A    between atoms: C2'_577  and  O2'_578 
REMARK       I    between atoms: C3'_580  and  O3'_581 
REMARK       I    between atoms: O3'_581  and  P_582 
REMARK       I    between atoms: P_582  and  O5'_585 
REMARK       I    between atoms: O5'_585  and  C5'_586 
REMARK       I    between atoms: C5'_586  and  C4'_587 
REMARK       I    between atoms: C1'_589  and  N1_590 
REMARK       I    between atoms: C2'_599  and  O2'_600 
REMARK       I    between atoms: C3'_602  and  O3'_603 
REMARK       I    between atoms: O3'_603  and  P_604 
REMARK       I    between atoms: P_604  and  O5'_607 
REMARK       I    between atoms: O5'_607  and  C5'_608 
REMARK       I    between atoms: C5'_608  and  C4'_609 
REMARK       I    between atoms: C1'_611  and  N1_612 
REMARK       I    between atoms: C4_617  and  N4_618 
REMARK       I    between atoms: C2'_622  and  O2'_623 
REMARK       I    between atoms: C3'_625  and  O3'_626 
REMARK       I    between atoms: O3'_626  and  P_627 
REMARK       I    between atoms: P_627  and  O5'_630 
REMARK       I    between atoms: O5'_630  and  C5'_631 
REMARK       I    between atoms: C5'_631  and  C4'_632 
REMARK       I    between atoms: C1'_634  and  N9_635 
REMARK       I    between atoms: C6_640  and  N6_641 
REMARK       I    between atoms: C2'_647  and  O2'_648 
REMARK   60  A    between atoms: C3'_650  and  O3'_651 
REMARK   61  A    between atoms: O3'_651  and  P_652 
REMARK   62  A    between atoms: P_652  and  O5'_655 
REMARK   63  A    between atoms: O5'_655  and  C5'_656 
REMARK   64  A    between atoms: C5'_656  and  C4'_657 
REMARK       I    between atoms: C1'_659  and  N9_660 
REMARK       I    between atoms: C2_663  and  N2_664 
REMARK       I    between atoms: C2'_674  and  O2'_675 
REMARK   65  A    between atoms: C3'_677  and  O3'_678 
REMARK   66  A    between atoms: O3'_678  and  P_679 
REMARK   67  A    between atoms: P_679  and  O5'_682 
REMARK   68  A    between atoms: O5'_682  and  C5'_683 
REMARK   69  A    between atoms: C5'_683  and  C4'_684 
REMARK       I    between atoms: C1'_686  and  N9_687 
REMARK       I    between atoms: C6_692  and  N6_693 
REMARK       I    between atoms: C2'_699  and  O2'_700 
REMARK       I    between atoms: C3'_702  and  O3'_703 
REMARK       I    between atoms: O3'_703  and  P_704 
REMARK       I    between atoms: P_704  and  O5'_707 
REMARK       I    between atoms: O5'_707  and  C5'_708 
REMARK       I    between atoms: C5'_708  and  C4'_709 
REMARK       I    between atoms: C1'_711  and  N9_712 
REMARK       I    between atoms: C6_717  and  N6_718 
REMARK       I    between atoms: C2'_724  and  O2'_725 
REMARK       I    between atoms: C3'_727  and  O3'_728 
REMARK       I    between atoms: O3'_728  and  P_729 
REMARK       I    between atoms: P_729  and  O5'_732 
REMARK       I    between atoms: O5'_732  and  C5'_733 
REMARK       I    between atoms: C5'_733  and  C4'_734 
REMARK       I    between atoms: C1'_736  and  N9_737 
REMARK       I    between atoms: C2_740  and  N2_741 
REMARK       I    between atoms: C2'_751  and  O2'_752 
REMARK   70  A    between atoms: C3'_754  and  O3'_755 
REMARK   71  A    between atoms: O3'_755  and  P_756 
REMARK   72  A    between atoms: P_756  and  O5'_759 
REMARK   73  A    between atoms: O5'_759  and  C5'_760 
REMARK   74  A    between atoms: C5'_760  and  C4'_761 
REMARK       I    between atoms: C1'_763  and  N9_764 
REMARK       I    between atoms: C2_767  and  N2_768 
REMARK       I    between atoms: C2'_778  and  O2'_779 
REMARK       I    between atoms: C3'_781  and  O3'_782 
REMARK       I    between atoms: O3'_782  and  P_783 
REMARK       I    between atoms: P_783  and  O5'_786 
REMARK       I    between atoms: O5'_786  and  C5'_787 
REMARK       I    between atoms: C5'_787  and  C4'_788 
REMARK       I    between atoms: C1'_790  and  N1_791 
REMARK   75  A    between atoms: C4_796  and  N4_797 
REMARK       I    between atoms: C2'_801  and  O2'_802 
REMARK       I    between atoms: C3'_804  and  O3'_805 
REMARK       I    between atoms: O3'_805  and  P_806 
REMARK       I    between atoms: P_806  and  O5'_809 
REMARK       I    between atoms: O5'_809  and  C5'_810 
REMARK       I    between atoms: C5'_810  and  C4'_811 
REMARK       I    between atoms: C1'_813  and  N1_814 
REMARK       I    between atoms: C2'_823  and  O2'_824 
REMARK       I    between atoms: C3'_826  and  O3'_827 
REMARK       I    between atoms: O3'_827  and  P_828 
REMARK       I    between atoms: P_828  and  O5'_831 
REMARK       I    between atoms: O5'_831  and  C5'_832 
REMARK       I    between atoms: C5'_832  and  C4'_833 
REMARK       I    between atoms: C1'_835  and  N9_836 
REMARK       I    between atoms: C2_839  and  N2_840 
REMARK       I    between atoms: C2'_850  and  O2'_851 
REMARK       I    between atoms: C3'_853  and  O3'_854 
REMARK       I    between atoms: O3'_854  and  P_855 
REMARK       I    between atoms: P_855  and  O5'_858 
REMARK       I    between atoms: O5'_858  and  C5'_859 
REMARK       I    between atoms: C5'_859  and  C4'_860 
REMARK       I    between atoms: C1'_862  and  N1_863 
REMARK       I    between atoms: C4_868  and  N4_869 
REMARK       I    between atoms: C2'_873  and  O2'_874 
REMARK       I    between atoms: C3'_876  and  O3'_877 
REMARK       I    between atoms: O3'_877  and  P_878 
REMARK       I    between atoms: P_878  and  O5'_881 
REMARK       I    between atoms: O5'_881  and  C5'_882 
REMARK       I    between atoms: C5'_882  and  C4'_883 
REMARK       I    between atoms: C1'_885  and  N9_886 
REMARK       I    between atoms: C2_889  and  N2_890 
REMARK       I    between atoms: C2'_900  and  O2'_901 
REMARK       I    between atoms: C3'_903  and  O3'_904 
REMARK       I    between atoms: O3'_904  and  P_905 
REMARK       I    between atoms: P_905  and  O5'_908 
REMARK       I    between atoms: O5'_908  and  C5'_909 
REMARK       I    between atoms: C5'_909  and  C4'_910 
REMARK       I    between atoms: C1'_912  and  N1_913 
REMARK       I    between atoms: C2'_922  and  O2'_923 
REMARK       I    between atoms: C3'_925  and  O3'_926 
REMARK       I    between atoms: O3'_926  and  P_927 
REMARK       I    between atoms: P_927  and  O5'_930 
REMARK       I    between atoms: O5'_930  and  C5'_931 
REMARK       I    between atoms: C5'_931  and  C4'_932 
REMARK       I    between atoms: C1'_934  and  N9_935 
REMARK       I    between atoms: C2_938  and  N2_939 
REMARK   76  A    between atoms: C2'_949  and  O2'_950 
REMARK   77  A    between atoms: C3'_952  and  O3'_953 
REMARK   78  A    between atoms: O3'_953  and  P_954 
REMARK   79  A    between atoms: P_954  and  O5'_957 
REMARK   80  A    between atoms: O5'_957  and  C5'_958 
REMARK   81  A    between atoms: C5'_958  and  C4'_959 
REMARK       I    between atoms: C1'_961  and  N9_962 
REMARK       I    between atoms: C2_965  and  N2_966 
REMARK       I    between atoms: C2'_976  and  O2'_977 
REMARK   82  A    between atoms: C3'_979  and  O3'_980 
REMARK   83  A    between atoms: O3'_980  and  P_981 
REMARK   84  A    between atoms: P_981  and  O5'_984 
REMARK   85  A    between atoms: O5'_984  and  C5'_985 
REMARK   86  A    between atoms: C5'_985  and  C4'_986 
REMARK       I    between atoms: C1'_988  and  N9_989 
REMARK       I    between atoms: C6_994  and  N6_995 
REMARK       I    between atoms: C2'_1001  and  O2'_1002 
REMARK       I    between atoms: C3'_1004  and  O3'_1005 
REMARK       I    between atoms: O3'_1005  and  P_1006 
REMARK       I    between atoms: P_1006  and  O5'_1009 
REMARK       I    between atoms: O5'_1009  and  C5'_1010 
REMARK       I    between atoms: C5'_1010  and  C4'_1011 
REMARK       I    between atoms: C1'_1013  and  N9_1014 
REMARK       I    between atoms: C6_1019  and  N6_1020 
REMARK       I    between atoms: C2'_1026  and  O2'_1027 
REMARK       I    between atoms: C3'_1029  and  O3'_1030 
REMARK       I    between atoms: O3'_1030  and  P_1031 
REMARK       I    between atoms: P_1031  and  O5'_1034 
REMARK       I    between atoms: O5'_1034  and  C5'_1035 
REMARK       I    between atoms: C5'_1035  and  C4'_1036 
REMARK       I    between atoms: C1'_1038  and  N1_1039 
REMARK       I    between atoms: C2'_1048  and  O2'_1049 
REMARK       I    between atoms: C3'_1051  and  O3'_1052 
REMARK       I    between atoms: O3'_1052  and  P_1053 
REMARK       I    between atoms: P_1053  and  O5'_1056 
REMARK       I    between atoms: O5'_1056  and  C5'_1057 
REMARK       I    between atoms: C5'_1057  and  C4'_1058 
REMARK       I    between atoms: C1'_1060  and  N1_1061 
REMARK       I    between atoms: C4_1066  and  N4_1067 
REMARK       I    between atoms: C2'_1071  and  O2'_1072 
REMARK       I    between atoms: C3'_1074  and  O3'_1075 
REMARK       I    between atoms: O3'_1075  and  P_1076 
REMARK       I    between atoms: P_1076  and  O5'_1079 
REMARK       I    between atoms: O5'_1079  and  C5'_1080 
REMARK       I    between atoms: C5'_1080  and  C4'_1081 
REMARK       I    between atoms: C1'_1083  and  N9_1084 
REMARK       I    between atoms: C6_1089  and  N6_1090 
REMARK       I    between atoms: C2'_1096  and  O2'_1097 
REMARK       I    between atoms: C3'_1099  and  O3'_1100 
REMARK       I    between atoms: O3'_1100  and  P_1101 
REMARK       I    between atoms: P_1101  and  O5'_1104 
REMARK       I    between atoms: O5'_1104  and  C5'_1105 
REMARK       I    between atoms: C5'_1105  and  C4'_1106 
REMARK       I    between atoms: C1'_1108  and  N1_1109 
REMARK       I    between atoms: C4_1114  and  N4_1115 
REMARK       I    between atoms: C2'_1119  and  O2'_1120 
REMARK       I    between atoms: C3'_1122  and  O3'_1123 
REMARK       I    between atoms: O3'_1123  and  P_1124 
REMARK       I    between atoms: P_1124  and  O5'_1127 
REMARK       I    between atoms: O5'_1127  and  C5'_1128 
REMARK       I    between atoms: C5'_1128  and  C4'_1129 
REMARK       I    between atoms: C1'_1131  and  N9_1132 
REMARK       I    between atoms: C2_1135  and  N2_1136 
REMARK       I    between atoms: C2'_1146  and  O2'_1147 
REMARK       I    between atoms: C3'_1149  and  O3'_1150 
REMARK   87  A    between atoms: O3'_1150  and  P_1151 
REMARK   88  A    between atoms: P_1151  and  O5'_1154 
REMARK   89  A    between atoms: O5'_1154  and  C5'_1155 
REMARK   90  A    between atoms: C5'_1155  and  C4'_1156 
REMARK       I    between atoms: C1'_1158  and  N1_1159 
REMARK       I    between atoms: C2'_1168  and  O2'_1169 
REMARK   91  A    between atoms: C3'_1171  and  O3'_1172 
REMARK   92  A    between atoms: O3'_1172  and  P_1173 
REMARK   93  A    between atoms: P_1173  and  O5'_1176 
REMARK   94  A    between atoms: O5'_1176  and  C5'_1177 
REMARK   95  A    between atoms: C5'_1177  and  C4'_1178 
REMARK       I    between atoms: C1'_1180  and  N1_1181 
REMARK       I    between atoms: C4_1186  and  N4_1187 
REMARK       I    between atoms: C2'_1191  and  O2'_1192 
REMARK   96  A    between atoms: C3'_1194  and  O3'_1195 
REMARK       I    between atoms: O3'_1195  and  P_1196 
REMARK       I    between atoms: P_1196  and  O5'_1199 
REMARK       I    between atoms: O5'_1199  and  C5'_1200 
REMARK       I    between atoms: C5'_1200  and  C4'_1201 
REMARK       I    between atoms: C1'_1203  and  N9_1204 
REMARK       I    between atoms: C2_1207  and  N2_1208 
REMARK       I    between atoms: C2'_1218  and  O2'_1219 
REMARK       I    between atoms: C3'_1221  and  O3'_1222 
REMARK       I    between atoms: O3'_1222  and  P_1223 
REMARK       I    between atoms: P_1223  and  O5'_1226 
REMARK       I    between atoms: O5'_1226  and  C5'_1227 
REMARK       I    between atoms: C5'_1227  and  C4'_1228 
REMARK       I    between atoms: C1'_1230  and  N9_1231 
REMARK       I    between atoms: C2_1234  and  N2_1235 
REMARK       I    between atoms: C2'_1245  and  O2'_1246 
REMARK       I    between atoms: C3'_1248  and  O3'_1249 
REMARK       I    between atoms: O3'_1249  and  P_1250 
REMARK       I    between atoms: P_1250  and  O5'_1253 
REMARK       I    between atoms: O5'_1253  and  C5'_1254 
REMARK       I    between atoms: C5'_1254  and  C4'_1255 
REMARK       I    between atoms: C1'_1257  and  N9_1258 
REMARK       I    between atoms: C2_1261  and  N2_1262 
REMARK       I    between atoms: C2'_1272  and  O2'_1273 
REMARK       I    between atoms: C3'_1275  and  O3'_1276 
REMARK       I    between atoms: O3'_1276  and  P_1277 
REMARK       I    between atoms: P_1277  and  O5'_1280 
REMARK       I    between atoms: O5'_1280  and  C5'_1281 
REMARK       I    between atoms: C5'_1281  and  C4'_1282 
REMARK       I    between atoms: C1'_1284  and  N9_1285 
REMARK       I    between atoms: C2_1288  and  N2_1289 
REMARK       I    between atoms: C2'_1299  and  O2'_1300 
REMARK       I    between atoms: C3'_1302  and  O3'_1303 
REMARK       I    between atoms: O3'_1303  and  P_1304 
REMARK       I    between atoms: P_1304  and  O5'_1307 
REMARK       I    between atoms: O5'_1307  and  C5'_1308 
REMARK       I    between atoms: C5'_1308  and  C4'_1309 
REMARK       I    between atoms: C1'_1311  and  N1_1312 
REMARK       I    between atoms: C2'_1321  and  O2'_1322 
REMARK   97  A    between atoms: C3'_1324  and  O3'_1325 
REMARK   98  A    between atoms: O3'_1325  and  P_1326 
REMARK   99  A    between atoms: P_1326  and  O5'_1329 
REMARK  100  A    between atoms: O5'_1329  and  C5'_1330 
REMARK  101  A    between atoms: C5'_1330  and  C4'_1331 
REMARK       I    between atoms: C1'_1333  and  N1_1334 
REMARK       I    between atoms: C4_1339  and  N4_1340 
REMARK  102  A    between atoms: C2'_1344  and  O2'_1345 
REMARK  103  A    between atoms: C3'_1347  and  O3'_1348 
REMARK  104  A    between atoms: O3'_1348  and  P_1349 
REMARK       I    between atoms: P_1349  and  O5'_1352 
REMARK       I    between atoms: O5'_1352  and  C5'_1353 
REMARK       I    between atoms: C5'_1353  and  C4'_1354 
REMARK       I    between atoms: C1'_1356  and  N9_1357 
REMARK       I    between atoms: C6_1362  and  N6_1363 
REMARK       I    between atoms: C2'_1369  and  O2'_1370 
REMARK       I    between atoms: C3'_1372  and  O3'_1373 
ROOT
ATOM      1 'HO5   G A   1     -43.121  11.817  32.298  1.00  0.00     0.209 HD
ATOM      2  O5'   G A   1     -42.712  11.676  31.440  1.00  0.00    -0.398 OA
ATOM      3  C5'   G A   1     -42.130  12.922  31.046  1.00  0.00     0.198 C 
ATOM      4  C4'   G A   1     -41.723  13.737  32.254  1.00  0.00     0.180 C 
ATOM      5  O4'   G A   1     -42.323  13.152  33.446  1.00  0.00    -0.353 OA
ATOM      6  C1'   G A   1     -41.362  13.095  34.485  1.00  0.00     0.262 C 
ATOM      7  N9    G A   1     -40.991  11.699  34.696  1.00  0.00    -0.293 N 
ATOM      8  C4    G A   1     -40.236  11.204  35.731  1.00  0.00     0.187 A 
ATOM      9  N3    G A   1     -39.707  11.924  36.742  1.00  0.00    -0.044 NA
ATOM     10  C2    G A   1     -39.031  11.165  37.586  1.00  0.00     0.703 A 
ATOM     11  N2    G A   1     -38.443  11.718  38.649  1.00  0.00    -0.233 N 
ATOM     12  H21   G A   1     -38.520  12.713  38.797  1.00  0.00     0.174 HD
ATOM     13  H22   G A   1     -37.926  11.144  39.301  1.00  0.00     0.174 HD
ATOM     14  N1    G A   1     -38.883   9.809  37.450  1.00  0.00    -0.153 N 
ATOM     15  H1    G A   1     -38.345   9.324  38.152  1.00  0.00     0.187 HD
ATOM     16  C6    G A   1     -39.413   9.046  36.416  1.00  0.00     0.292 A 
ATOM     17  O6    G A   1     -39.214   7.826  36.387  1.00  0.00    -0.265 OA
ATOM     18  C5    G A   1     -40.146   9.846  35.502  1.00  0.00     0.173 A 
ATOM     19  N7    G A   1     -40.833   9.495  34.347  1.00  0.00    -0.234 NA
ATOM     20  C8    G A   1     -41.316  10.624  33.906  1.00  0.00     0.214 A 
ATOM     21  C2'   G A   1     -40.194  13.977  34.053  1.00  0.00     0.199 C 
ATOM     22  O2'   G A   1     -40.486  15.320  34.394  1.00  0.00    -0.388 OA
ATOM     23 'HO2   G A   1     -39.832  15.865  33.957  1.00  0.00     0.210 HD
ATOM     24  C3'   G A   1     -40.227  13.767  32.546  1.00  0.00     0.198 C 
ATOM     25  O3'   G A   1     -39.569  14.810  31.833  1.00  0.00    -0.279 OA
ATOM     26  P     A A   2     -38.077  14.580  31.278  1.00  0.00     0.408 P 
ATOM     27  OP1   A A   2     -37.719  15.776  30.473  1.00  0.00    -0.624 OA
ATOM     28  OP2   A A   2     -38.007  13.233  30.658  1.00  0.00    -0.624 OA
ATOM     29  O5'   A A   2     -37.173  14.573  32.591  1.00  0.00    -0.287 OA
ATOM     30  C5'   A A   2     -37.043  15.741  33.399  1.00  0.00     0.216 C 
ATOM     31  C4'   A A   2     -36.131  15.466  34.571  1.00  0.00     0.180 C 
ATOM     32  O4'   A A   2     -36.792  14.543  35.480  1.00  0.00    -0.353 OA
ATOM     33  C1'   A A   2     -35.840  13.640  36.018  1.00  0.00     0.262 C 
ATOM     34  N9    A A   2     -36.183  12.289  35.573  1.00  0.00    -0.294 N 
ATOM     35  C4    A A   2     -35.749  11.114  36.136  1.00  0.00     0.167 A 
ATOM     36  N3    A A   2     -34.933  10.971  37.196  1.00  0.00    -0.222 NA
ATOM     37  C2    A A   2     -34.728   9.683  37.459  1.00  0.00     0.237 A 
ATOM     38  N1    A A   2     -35.207   8.602  36.828  1.00  0.00    -0.222 NA
ATOM     39  C6    A A   2     -36.023   8.782  35.768  1.00  0.00     0.155 A 
ATOM     40  N6    A A   2     -36.501   7.705  35.142  1.00  0.00    -0.382 N 
ATOM     41  H61   A A   2     -37.113   7.818  34.347  1.00  0.00     0.157 HD
ATOM     42  H62   A A   2     -36.252   6.779  35.461  1.00  0.00     0.157 HD
ATOM     43  C5    A A   2     -36.321  10.102  35.388  1.00  0.00     0.149 A 
ATOM     44  N7    A A   2     -37.105  10.629  34.370  1.00  0.00    -0.236 NA
ATOM     45  C8    A A   2     -36.990  11.925  34.524  1.00  0.00     0.214 A 
ATOM     46  C2'   A A   2     -34.460  14.102  35.552  1.00  0.00     0.199 C 
ATOM     47  O2'   A A   2     -33.951  15.031  36.491  1.00  0.00    -0.388 OA
ATOM     48 'HO2   A A   2     -33.428  15.664  35.997  1.00  0.00     0.210 HD
ATOM     49  C3'   A A   2     -34.812  14.783  34.236  1.00  0.00     0.198 C 
ATOM     50  O3'   A A   2     -33.821  15.719  33.822  1.00  0.00    -0.279 OA
ATOM     51  P     C A   3     -32.683  15.269  32.777  1.00  0.00     0.408 P 
ATOM     52  OP1   C A   3     -31.937  16.492  32.387  1.00  0.00    -0.624 OA
ATOM     53  OP2   C A   3     -33.309  14.425  31.727  1.00  0.00    -0.624 OA
ATOM     54  O5'   C A   3     -31.710  14.348  33.641  1.00  0.00    -0.287 OA
ATOM     55  C5'   C A   3     -30.903  14.903  34.678  1.00  0.00     0.216 C 
ATOM     56  C4'   C A   3     -30.319  13.802  35.534  1.00  0.00     0.180 C 
ATOM     57  O4'   C A   3     -31.391  12.955  36.032  1.00  0.00    -0.353 OA
ATOM     58  C1'   C A   3     -30.928  11.619  36.142  1.00  0.00     0.264 C 
ATOM     59  N1    C A   3     -31.758  10.758  35.282  1.00  0.00    -0.278 N 
ATOM     60  C6    C A   3     -32.569  11.296  34.320  1.00  0.00     0.102 A 
ATOM     61  C2    C A   3     -31.700   9.373  35.459  1.00  0.00     0.352 A 
ATOM     62  O2    C A   3     -30.960   8.910  36.338  1.00  0.00    -0.244 OA
ATOM     63  N3    C A   3     -32.450   8.573  34.672  1.00  0.00    -0.177 NA
ATOM     64  C4    C A   3     -33.237   9.106  33.737  1.00  0.00     0.128 A 
ATOM     65  N4    C A   3     -33.956   8.276  32.982  1.00  0.00    -0.384 N 
ATOM     66  H41   C A   3     -34.564   8.638  32.262  1.00  0.00     0.157 HD
ATOM     67  H42   C A   3     -33.887   7.279  33.133  1.00  0.00     0.157 HD
ATOM     68  C5    C A   3     -33.321  10.515  33.533  1.00  0.00     0.067 A 
ATOM     69  C2'   C A   3     -29.450  11.616  35.751  1.00  0.00     0.199 C 
ATOM     70  O2'   C A   3     -28.674  11.828  36.916  1.00  0.00    -0.388 OA
ATOM     71 'HO2   C A   3     -28.155  12.620  36.766  1.00  0.00     0.210 HD
ATOM     72  C3'   C A   3     -29.396  12.822  34.823  1.00  0.00     0.198 C 
ATOM     73  O3'   C A   3     -28.074  13.333  34.671  1.00  0.00    -0.279 OA
ATOM     74  P     C A   4     -27.110  12.733  33.529  1.00  0.00     0.408 P 
ATOM     75  OP1   C A   4     -25.969  13.666  33.366  1.00  0.00    -0.624 OA
ATOM     76  OP2   C A   4     -27.945  12.384  32.350  1.00  0.00    -0.624 OA
ATOM     77  O5'   C A   4     -26.560  11.374  34.158  1.00  0.00    -0.287 OA
ATOM     78  C5'   C A   4     -26.043  11.334  35.488  1.00  0.00     0.216 C 
ATOM     79  C4'   C A   4     -25.548   9.944  35.818  1.00  0.00     0.180 C 
ATOM     80  O4'   C A   4     -26.686   9.121  36.202  1.00  0.00    -0.353 OA
ATOM     81  C1'   C A   4     -26.576   7.841  35.604  1.00  0.00     0.264 C 
ATOM     82  N1    C A   4     -27.626   7.714  34.577  1.00  0.00    -0.278 N 
ATOM     83  C6    C A   4     -28.107   8.818  33.930  1.00  0.00     0.102 A 
ATOM     84  C2    C A   4     -28.121   6.444  34.268  1.00  0.00     0.352 A 
ATOM     85  O2    C A   4     -27.671   5.459  34.871  1.00  0.00    -0.244 OA
ATOM     86  N3    C A   4     -29.079   6.320  33.322  1.00  0.00    -0.177 NA
ATOM     87  C4    C A   4     -29.542   7.404  32.696  1.00  0.00     0.128 A 
ATOM     88  N4    C A   4     -30.483   7.232  31.770  1.00  0.00    -0.384 N 
ATOM     89  H41   C A   4     -30.860   8.024  31.270  1.00  0.00     0.157 HD
ATOM     90  H42   C A   4     -30.820   6.301  31.564  1.00  0.00     0.157 HD
ATOM     91  C5    C A   4     -29.057   8.711  32.992  1.00  0.00     0.067 A 
ATOM     92  C2'   C A   4     -25.158   7.735  35.050  1.00  0.00     0.199 C 
ATOM     93  O2'   C A   4     -24.294   7.309  36.088  1.00  0.00    -0.388 OA
ATOM     94 'HO2   C A   4     -23.425   7.656  35.884  1.00  0.00     0.210 HD
ATOM     95  C3'   C A   4     -24.896   9.184  34.668  1.00  0.00     0.198 C 
ATOM     96  O3'   C A   4     -23.504   9.473  34.556  1.00  0.00    -0.279 OA
ATOM     97  P     T A   5     -22.863   9.765  33.109  1.00  0.00     0.408 P 
ATOM     98  OP1   T A   5     -21.448  10.171  33.317  1.00  0.00    -0.624 OA
ATOM     99  OP2   T A   5     -23.782  10.664  32.366  1.00  0.00    -0.624 OA
ATOM    100  O5'   T A   5     -22.874   8.343  32.385  1.00  0.00    -0.287 OA
ATOM    101  C5'   T A   5     -21.833   7.391  32.609  1.00  0.00     0.216 C 
ATOM    102  C4'   T A   5     -22.418   6.006  32.780  1.00  0.00     0.180 C 
ATOM    103  O4'   T A   5     -23.778   6.123  33.283  1.00  0.00    -0.353 OA
ATOM    104  C1'   T A   5     -24.608   5.161  32.658  1.00  0.00     0.264 C 
ATOM    105  N1    T A   5     -25.622   5.867  31.861  1.00  0.00    -0.280 N 
ATOM    106  C6    T A   5     -25.617   7.241  31.753  1.00  0.00     0.104 A 
ATOM    107  C2    T A   5     -26.587   5.108  31.221  1.00  0.00     0.331 A 
ATOM    108  O2    T A   5     -26.629   3.891  31.291  1.00  0.00    -0.246 OA
ATOM    109  N3    T A   5     -27.501   5.826  30.494  1.00  0.00    -0.275 N 
ATOM    110  H3    T A   5     -28.223   5.301  30.029  1.00  0.00     0.173 HD
ATOM    111  C4    T A   5     -27.553   7.192  30.346  1.00  0.00     0.250 A 
ATOM    112  O4    T A   5     -28.437   7.689  29.648  1.00  0.00    -0.268 OA
ATOM    113  C5    T A   5     -26.529   7.906  31.038  1.00  0.00     0.092 A 
ATOM    114  C2'   T A   5     -23.703   4.245  31.834  1.00  0.00     0.199 C 
ATOM    115  O2'   T A   5     -23.272   3.176  32.657  1.00  0.00    -0.388 OA
ATOM    116 'HO2   T A   5     -22.315   3.203  32.666  1.00  0.00     0.210 HD
ATOM    117  C3'   T A   5     -22.553   5.188  31.501  1.00  0.00     0.198 C 
ATOM    118  O3'   T A   5     -21.349   4.489  31.194  1.00  0.00    -0.279 OA
ATOM    119  P     C A   6     -20.568   4.799  29.821  1.00  0.00     0.408 P 
ATOM    120  OP1   C A   6     -19.244   4.131  29.908  1.00  0.00    -0.624 OA
ATOM    121  OP2   C A   6     -20.635   6.260  29.566  1.00  0.00    -0.624 OA
ATOM    122  O5'   C A   6     -21.439   4.058  28.708  1.00  0.00    -0.287 OA
ATOM    123  C5'   C A   6     -20.823   3.392  27.601  1.00  0.00     0.216 C 
ATOM    124  C4'   C A   6     -21.492   2.056  27.354  1.00  0.00     0.180 C 
ATOM    125  O4'   C A   6     -22.474   1.817  28.407  1.00  0.00    -0.353 OA
ATOM    126  C1'   C A   6     -23.703   1.418  27.826  1.00  0.00     0.264 C 
ATOM    127  N1    C A   6     -24.625   2.567  27.834  1.00  0.00    -0.278 N 
ATOM    128  C6    C A   6     -24.304   3.724  28.487  1.00  0.00     0.102 A 
ATOM    129  C2    C A   6     -25.831   2.459  27.144  1.00  0.00     0.352 A 
ATOM    130  O2    C A   6     -26.109   1.388  26.581  1.00  0.00    -0.244 OA
ATOM    131  N3    C A   6     -26.669   3.514  27.106  1.00  0.00    -0.177 NA
ATOM    132  C4    C A   6     -26.347   4.644  27.734  1.00  0.00     0.128 A 
ATOM    133  N4    C A   6     -27.206   5.660  27.655  1.00  0.00    -0.384 N 
ATOM    134  H41   C A   6     -27.018   6.543  28.108  1.00  0.00     0.157 HD
ATOM    135  H42   C A   6     -28.057   5.534  27.124  1.00  0.00     0.157 HD
ATOM    136  C5    C A   6     -25.131   4.780  28.466  1.00  0.00     0.067 A 
ATOM    137  C2'   C A   6     -23.365   0.940  26.419  1.00  0.00     0.199 C 
ATOM    138  O2'   C A   6     -22.851  -0.377  26.490  1.00  0.00    -0.388 OA
ATOM    139 'HO2   C A   6     -21.934  -0.333  26.220  1.00  0.00     0.210 HD
ATOM    140  C3'   C A   6     -22.284   1.945  26.054  1.00  0.00     0.198 C 
ATOM    141  O3'   C A   6     -21.493   1.504  24.954  1.00  0.00    -0.279 OA
ATOM    142  P     G A   7     -21.619   2.253  23.536  1.00  0.00     0.408 P 
ATOM    143  OP1   G A   7     -23.046   2.629  23.358  1.00  0.00    -0.624 OA
ATOM    144  OP2   G A   7     -20.573   3.305  23.502  1.00  0.00    -0.624 OA
ATOM    145  O5'   G A   7     -21.262   1.130  22.461  1.00  0.00    -0.287 OA
ATOM    146  C5'   G A   7     -21.857   1.132  21.158  1.00  0.00     0.216 C 
ATOM    147  C4'   G A   7     -20.820   1.472  20.110  1.00  0.00     0.180 C 
ATOM    148  O4'   G A   7     -21.421   2.379  19.143  1.00  0.00    -0.353 OA
ATOM    149  C1'   G A   7     -20.780   3.627  19.226  1.00  0.00     0.262 C 
ATOM    150  N9    G A   7     -21.526   4.447  20.176  1.00  0.00    -0.293 N 
ATOM    151  C4    G A   7     -22.874   4.688  20.131  1.00  0.00     0.187 A 
ATOM    152  N3    G A   7     -23.725   4.224  19.195  1.00  0.00    -0.044 NA
ATOM    153  C2    G A   7     -24.962   4.617  19.416  1.00  0.00     0.703 A 
ATOM    154  N2    G A   7     -25.923   4.241  18.576  1.00  0.00    -0.233 N 
ATOM    155  H21   G A   7     -25.685   3.663  17.785  1.00  0.00     0.174 HD
ATOM    156  H22   G A   7     -26.881   4.527  18.730  1.00  0.00     0.174 HD
ATOM    157  N1    G A   7     -25.342   5.403  20.474  1.00  0.00    -0.153 N 
ATOM    158  H1    G A   7     -26.319   5.646  20.552  1.00  0.00     0.187 HD
ATOM    159  C6    G A   7     -24.483   5.893  21.453  1.00  0.00     0.292 A 
ATOM    160  O6    G A   7     -24.932   6.592  22.370  1.00  0.00    -0.265 OA
ATOM    161  C5    G A   7     -23.143   5.480  21.225  1.00  0.00     0.173 A 
ATOM    162  N7    G A   7     -21.983   5.739  21.943  1.00  0.00    -0.234 NA
ATOM    163  C8    G A   7     -21.052   5.109  21.282  1.00  0.00     0.214 A 
ATOM    164  C2'   G A   7     -19.344   3.301  19.618  1.00  0.00     0.199 C 
ATOM    165  O2'   G A   7     -18.670   2.823  18.471  1.00  0.00    -0.388 OA
ATOM    166 'HO2   G A   7     -19.127   2.028  18.184  1.00  0.00     0.210 HD
ATOM    167  C3'   G A   7     -19.577   2.189  20.639  1.00  0.00     0.198 C 
ENDROOT
BRANCH 167 168
ATOM    168  O3'   G A   7     -18.482   1.287  20.743  1.00  0.00    -0.279 OA
BRANCH 168 169
ATOM    169  P     T A   8     -17.654   1.199  22.121  1.00  0.00     0.408 P 
ATOM    170  OP2   T A   8     -16.213   1.051  21.792  1.00  0.00    -0.624 OA
ATOM    171  OP1   T A   8     -18.317   0.189  22.984  1.00  0.00    -0.624 OA
BRANCH 169 172
ATOM    172  O5'   T A   8     -17.863   2.630  22.789  1.00  0.00    -0.287 OA
BRANCH 172 173
ATOM    173  C5'   T A   8     -16.808   3.261  23.511  1.00  0.00     0.216 C 
BRANCH 173 174
ATOM    174  C4'   T A   8     -17.259   3.583  24.915  1.00  0.00     0.180 C 
ATOM    175  O4'   T A   8     -17.902   2.409  25.483  1.00  0.00    -0.353 OA
ATOM    176  C1'   T A   8     -17.524   2.266  26.841  1.00  0.00     0.264 C 
ATOM    177  C2'   T A   8     -16.753   3.527  27.233  1.00  0.00     0.199 C 
ATOM    178  N1    T A   8     -16.740   1.030  26.977  1.00  0.00    -0.280 N 
ATOM    179  C3'   T A   8     -16.143   3.922  25.894  1.00  0.00     0.198 C 
ATOM    180  C6    T A   8     -15.769   0.697  26.060  1.00  0.00     0.104 A 
ATOM    181  C2    T A   8     -17.007   0.211  28.060  1.00  0.00     0.331 A 
ATOM    182  C5    T A   8     -15.033  -0.412  26.169  1.00  0.00     0.092 A 
ATOM    183  C4    T A   8     -15.243  -1.306  27.262  1.00  0.00     0.250 A 
ATOM    184  N3    T A   8     -16.234  -0.919  28.136  1.00  0.00    -0.275 N 
ATOM    185  O4    T A   8     -14.614  -2.341  27.482  1.00  0.00    -0.268 OA
ATOM    186  H3    T A   8     -16.412  -1.542  28.909  1.00  0.00     0.173 HD
ATOM    187  O2    T A   8     -17.860   0.467  28.891  1.00  0.00    -0.246 OA
BRANCH 177 188
ATOM    188  O2'   T A   8     -17.674   4.500  27.686  1.00  0.00    -0.388 OA
ATOM    189 'HO2   T A   8     -17.165   5.285  27.897  1.00  0.00     0.210 HD
ENDBRANCH 177 188
BRANCH 179 190
ATOM    190  O3'   T A   8     -15.798   5.303  25.829  1.00  0.00    -0.279 OA
BRANCH 190 191
ATOM    191  P     G A   9     -14.382   5.808  26.403  1.00  0.00     0.408 P 
ATOM    192  OP1   G A   9     -13.986   6.998  25.608  1.00  0.00    -0.624 OA
ATOM    193  OP2   G A   9     -13.449   4.657  26.511  1.00  0.00    -0.624 OA
BRANCH 191 194
ATOM    194  O5'   G A   9     -14.730   6.305  27.877  1.00  0.00    -0.287 OA
BRANCH 194 195
ATOM    195  C5'   G A   9     -14.374   5.522  29.016  1.00  0.00     0.216 C 
BRANCH 195 196
ATOM    196  C4'   G A   9     -13.533   6.337  29.968  1.00  0.00     0.180 C 
ATOM    197  O4'   G A   9     -12.129   6.071  29.716  1.00  0.00    -0.353 OA
ATOM    198  C1'   G A   9     -11.372   7.243  29.970  1.00  0.00     0.262 C 
ATOM    199  C2'   G A   9     -12.340   8.332  30.437  1.00  0.00     0.199 C 
ATOM    200  N9    G A   9     -10.650   7.597  28.753  1.00  0.00    -0.293 N 
ATOM    201  C3'   G A   9     -13.648   7.847  29.825  1.00  0.00     0.198 C 
ATOM    202  O3'   G A   9     -14.790   8.357  30.510  1.00  0.00    -0.279 OA
ATOM    203  P     G A  10     -15.660   9.535  29.844  1.00  0.00     0.408 P 
ATOM    204  OP2   G A  10     -16.181   9.053  28.540  1.00  0.00    -0.624 OA
ATOM    205  OP1   G A  10     -16.610  10.016  30.880  1.00  0.00    -0.624 OA
ATOM    206  O5'   G A  10     -14.601  10.693  29.564  1.00  0.00    -0.287 OA
ATOM    207  C8    G A   9     -11.170   7.734  27.490  1.00  0.00     0.214 A 
ATOM    208  C4    G A   9      -9.307   7.866  28.650  1.00  0.00     0.187 A 
ATOM    209  N7    G A   9     -10.277   8.067  26.598  1.00  0.00    -0.234 NA
ATOM    210  C5    G A   9      -9.092   8.156  27.320  1.00  0.00     0.173 A 
ATOM    211  C6    G A   9      -7.776   8.483  26.898  1.00  0.00     0.292 A 
ATOM    212  N1    G A   9      -6.877   8.452  27.958  1.00  0.00    -0.153 N 
ATOM    213  O6    G A   9      -7.377   8.772  25.766  1.00  0.00    -0.265 OA
ATOM    214  H1    G A   9      -5.917   8.672  27.743  1.00  0.00     0.187 HD
ATOM    215  C2    G A   9      -7.197   8.147  29.256  1.00  0.00     0.703 A 
ATOM    216  N3    G A   9      -8.414   7.844  29.664  1.00  0.00    -0.044 NA
ATOM    217  N2    G A   9      -6.192   8.167  30.133  1.00  0.00    -0.233 N 
ATOM    218  H22   G A   9      -5.251   8.388  29.842  1.00  0.00     0.174 HD
ATOM    219  H21   G A   9      -6.389   7.946  31.099  1.00  0.00     0.174 HD
BRANCH 199 220
ATOM    220  O2'   G A   9     -12.402   8.313  31.851  1.00  0.00    -0.388 OA
ATOM    221 'HO2   G A   9     -13.201   8.785  32.086  1.00  0.00     0.210 HD
ENDBRANCH 199 220
BRANCH 206 222
ATOM    222  C5'   G A  10     -14.001  11.417  30.638  1.00  0.00     0.216 C 
BRANCH 222 223
ATOM    223  C4'   G A  10     -14.561  12.821  30.707  1.00  0.00     0.180 C 
ATOM    224  O4'   G A  10     -15.262  13.005  31.964  1.00  0.00    -0.353 OA
ATOM    225  C1'   G A  10     -15.155  14.358  32.374  1.00  0.00     0.262 C 
ATOM    226  C2'   G A  10     -14.298  15.095  31.342  1.00  0.00     0.199 C 
ATOM    227  C3'   G A  10     -13.531  13.942  30.700  1.00  0.00     0.198 C 
BRANCH 225 228
ATOM    228  N9    G A  10     -14.603  14.387  33.727  1.00  0.00    -0.293 N 
ATOM    229  C4    G A  10     -14.845  15.339  34.688  1.00  0.00     0.187 A 
ATOM    230  N3    G A  10     -15.638  16.423  34.549  1.00  0.00    -0.044 NA
ATOM    231  C5    G A  10     -14.114  14.944  35.789  1.00  0.00     0.173 A 
ATOM    232  C2    G A  10     -15.671  17.154  35.648  1.00  0.00     0.703 A 
ATOM    233  N1    G A  10     -14.985  16.849  36.796  1.00  0.00    -0.153 N 
ATOM    234  N2    G A  10     -16.408  18.267  35.682  1.00  0.00    -0.233 N 
ATOM    235  C6    G A  10     -14.163  15.742  36.964  1.00  0.00     0.292 A 
ATOM    236  H1    G A  10     -15.086  17.480  37.576  1.00  0.00     0.187 HD
ATOM    237  O6    G A  10     -13.586  15.562  38.045  1.00  0.00    -0.265 OA
ATOM    238  H21   G A  10     -16.933  18.537  34.863  1.00  0.00     0.174 HD
ATOM    239  H22   G A  10     -16.443  18.832  36.519  1.00  0.00     0.174 HD
ATOM    240  N7    G A  10     -13.425  13.766  35.526  1.00  0.00    -0.234 NA
ATOM    241  C8    G A  10     -13.745  13.475  34.295  1.00  0.00     0.214 A 
ENDBRANCH 225 228
BRANCH 226 242
ATOM    242  O2'   G A  10     -15.155  15.719  30.405  1.00  0.00    -0.388 OA
ATOM    243 'HO2   G A  10     -15.966  15.212  30.398  1.00  0.00     0.210 HD
ENDBRANCH 226 242
BRANCH 227 244
ATOM    244  O3'   G A  10     -13.097  14.243  29.374  1.00  0.00    -0.279 OA
BRANCH 244 245
ATOM    245  P     C A  11     -14.026  13.856  28.118  1.00  0.00     0.408 P 
ATOM    246  OP2   C A  11     -13.452  12.658  27.453  1.00  0.00    -0.624 OA
ATOM    247  OP1   C A  11     -15.429  13.822  28.605  1.00  0.00    -0.624 OA
BRANCH 245 248
ATOM    248  O5'   C A  11     -13.873  15.097  27.131  1.00  0.00    -0.287 OA
BRANCH 248 249
ATOM    249  C5'   C A  11     -14.971  15.970  26.877  1.00  0.00     0.216 C 
BRANCH 249 250
ATOM    250  C4'   C A  11     -14.573  17.035  25.882  1.00  0.00     0.180 C 
ATOM    251  O4'   C A  11     -13.524  16.512  25.027  1.00  0.00    -0.353 OA
ATOM    252  C1'   C A  11     -13.649  17.069  23.730  1.00  0.00     0.264 C 
ATOM    253  C2'   C A  11     -14.856  18.011  23.734  1.00  0.00     0.199 C 
ATOM    254  C3'   C A  11     -15.660  17.468  24.911  1.00  0.00     0.198 C 
BRANCH 252 255
ATOM    255  N1    C A  11     -13.766  15.970  22.758  1.00  0.00    -0.278 N 
ATOM    256  C2    C A  11     -13.144  16.105  21.516  1.00  0.00     0.352 A 
ATOM    257  O2    C A  11     -12.508  17.139  21.272  1.00  0.00    -0.244 OA
ATOM    258  N3    C A  11     -13.247  15.108  20.611  1.00  0.00    -0.177 NA
ATOM    259  C4    C A  11     -13.936  14.008  20.910  1.00  0.00     0.128 A 
ATOM    260  N4    C A  11     -14.010  13.051  19.985  1.00  0.00    -0.384 N 
ATOM    261  C5    C A  11     -14.580  13.838  22.171  1.00  0.00     0.067 A 
ATOM    262  H41   C A  11     -14.521  12.201  20.168  1.00  0.00     0.157 HD
ATOM    263  H42   C A  11     -13.548  13.184  19.096  1.00  0.00     0.157 HD
ATOM    264  C6    C A  11     -14.470  14.837  23.056  1.00  0.00     0.102 A 
ENDBRANCH 252 255
BRANCH 253 265
ATOM    265  O2'   C A  11     -14.396  19.324  23.989  1.00  0.00    -0.388 OA
ATOM    266 'HO2   C A  11     -13.679  19.251  24.618  1.00  0.00     0.210 HD
ENDBRANCH 253 265
BRANCH 254 267
ATOM    267  O3'   C A  11     -16.517  18.453  25.485  1.00  0.00    -0.279 OA
BRANCH 267 268
ATOM    268  P     G A  12     -15.990  19.362  26.702  1.00  0.00     0.408 P 
ATOM    269  OP2   G A  12     -14.503  19.354  26.692  1.00  0.00    -0.624 OA
ATOM    270  OP1   G A  12     -16.716  20.655  26.625  1.00  0.00    -0.624 OA
BRANCH 268 271
ATOM    271  O5'   G A  12     -16.499  18.595  28.004  1.00  0.00    -0.287 OA
BRANCH 271 272
ATOM    272  C5'   G A  12     -17.880  18.585  28.367  1.00  0.00     0.216 C 
BRANCH 272 273
ATOM    273  C4'   G A  12     -18.200  17.339  29.159  1.00  0.00     0.180 C 
ATOM    274  O4'   G A  12     -17.487  17.389  30.424  1.00  0.00    -0.353 OA
ATOM    275  C1'   G A  12     -18.284  16.814  31.444  1.00  0.00     0.262 C 
ATOM    276  N9    G A  12     -18.535  17.829  32.463  1.00  0.00    -0.293 N 
ATOM    277  C2'   G A  12     -19.559  16.278  30.791  1.00  0.00     0.199 C 
ATOM    278  C4    G A  12     -19.321  17.687  33.581  1.00  0.00     0.187 A 
ATOM    279  C8    G A  12     -18.043  19.112  32.498  1.00  0.00     0.214 A 
ATOM    280  N3    G A  12     -19.999  16.576  33.936  1.00  0.00    -0.044 NA
ATOM    281  C5    G A  12     -19.258  18.902  34.230  1.00  0.00     0.173 A 
ATOM    282  C2    G A  12     -20.665  16.744  35.063  1.00  0.00     0.703 A 
ATOM    283  N1    G A  12     -20.671  17.909  35.786  1.00  0.00    -0.153 N 
ATOM    284  N2    G A  12     -21.389  15.739  35.560  1.00  0.00    -0.233 N 
ATOM    285  C6    G A  12     -19.985  19.068  35.439  1.00  0.00     0.292 A 
ATOM    286  H1    G A  12     -21.214  17.932  36.635  1.00  0.00     0.187 HD
ATOM    287  O6    G A  12     -20.064  20.068  36.162  1.00  0.00    -0.265 OA
ATOM    288  H22   G A  12     -21.895  15.852  36.425  1.00  0.00     0.174 HD
ATOM    289  H21   G A  12     -21.418  14.858  35.066  1.00  0.00     0.174 HD
ATOM    290  N7    G A  12     -18.448  19.790  33.535  1.00  0.00    -0.234 NA
ATOM    291  C3'   G A  12     -19.659  17.170  29.558  1.00  0.00     0.198 C 
BRANCH 277 292
ATOM    292  O2'   G A  12     -19.350  14.926  30.432  1.00  0.00    -0.388 OA
ATOM    293 'HO2   G A  12     -19.867  14.765  29.642  1.00  0.00     0.210 HD
ENDBRANCH 277 292
BRANCH 291 294
ATOM    294  O3'   G A  12     -20.426  16.572  28.516  1.00  0.00    -0.279 OA
BRANCH 294 295
ATOM    295  P     T A  13     -21.897  17.133  28.184  1.00  0.00     0.408 P 
ATOM    296  OP2   T A  13     -21.756  18.464  27.540  1.00  0.00    -0.624 OA
ATOM    297  OP1   T A  13     -22.638  16.053  27.482  1.00  0.00    -0.624 OA
BRANCH 295 298
ATOM    298  O5'   T A  13     -22.563  17.345  29.616  1.00  0.00    -0.287 OA
BRANCH 298 299
ATOM    299  C5'   T A  13     -23.922  16.985  29.854  1.00  0.00     0.216 C 
BRANCH 299 300
ATOM    300  C4'   T A  13     -24.775  18.225  29.991  1.00  0.00     0.180 C 
ATOM    301  O4'   T A  13     -25.945  17.906  30.797  1.00  0.00    -0.353 OA
ATOM    302  C1'   T A  13     -26.210  18.969  31.696  1.00  0.00     0.264 C 
ATOM    303  N1    T A  13     -25.952  18.499  33.065  1.00  0.00    -0.280 N 
ATOM    304  C2'   T A  13     -25.325  20.140  31.276  1.00  0.00     0.199 C 
ATOM    305  C6    T A  13     -25.250  17.339  33.304  1.00  0.00     0.104 A 
ATOM    306  C2    T A  13     -26.435  19.267  34.108  1.00  0.00     0.331 A 
ATOM    307  C5    T A  13     -24.999  16.897  34.540  1.00  0.00     0.092 A 
ATOM    308  C4    T A  13     -25.463  17.637  35.671  1.00  0.00     0.250 A 
ATOM    309  O4    T A  13     -25.297  17.336  36.853  1.00  0.00    -0.268 OA
ATOM    310  N3    T A  13     -26.156  18.784  35.360  1.00  0.00    -0.275 N 
ATOM    311  H3    T A  13     -26.496  19.334  36.134  1.00  0.00     0.173 HD
ATOM    312  O2    T A  13     -27.063  20.295  33.940  1.00  0.00    -0.246 OA
ATOM    313  C3'   T A  13     -24.121  19.396  30.713  1.00  0.00     0.198 C 
ATOM    314  O2'   T A  13     -25.989  20.876  30.266  1.00  0.00    -0.388 OA
ATOM    315  O3'   T A  13     -23.348  20.202  29.829  1.00  0.00    -0.279 OA
ATOM    316  P     C A  14     -22.066  20.997  30.386  1.00  0.00     0.408 P 
ATOM    317  OP2   C A  14     -21.321  20.102  31.309  1.00  0.00    -0.624 OA
ATOM    318  OP1   C A  14     -21.369  21.589  29.216  1.00  0.00    -0.624 OA
ATOM    319  O5'   C A  14     -22.691  22.185  31.247  1.00  0.00    -0.287 OA
ATOM    320  C5'   C A  14     -23.376  23.267  30.616  1.00  0.00     0.216 C 
ATOM    321  C4'   C A  14     -23.983  24.181  31.658  1.00  0.00     0.180 C 
ATOM    322  O4'   C A  14     -24.854  23.405  32.524  1.00  0.00    -0.353 OA
ATOM    323  C3'   C A  14     -22.998  24.836  32.615  1.00  0.00     0.198 C 
ATOM    324  C1'   C A  14     -24.784  23.909  33.847  1.00  0.00     0.264 C 
ATOM    325  N1    C A  14     -24.300  22.833  34.730  1.00  0.00    -0.278 N 
ATOM    326  C2'   C A  14     -23.874  25.138  33.823  1.00  0.00     0.199 C 
ATOM    327  C6    C A  14     -23.697  21.720  34.214  1.00  0.00     0.102 A 
ATOM    328  C2    C A  14     -24.470  22.966  36.111  1.00  0.00     0.352 A 
ATOM    329  C5    C A  14     -23.262  20.737  35.012  1.00  0.00     0.067 A 
ATOM    330  C4    C A  14     -23.451  20.900  36.415  1.00  0.00     0.128 A 
ATOM    331  N3    C A  14     -24.035  21.983  36.929  1.00  0.00    -0.177 NA
ATOM    332  N4    C A  14     -23.041  19.955  37.260  1.00  0.00    -0.384 N 
ATOM    333  H42   C A  14     -23.176  20.082  38.254  1.00  0.00     0.157 HD
ATOM    334  H41   C A  14     -22.594  19.118  36.914  1.00  0.00     0.157 HD
ATOM    335  O2    C A  14     -25.015  23.987  36.556  1.00  0.00    -0.244 OA
ATOM    336  O2'   C A  14     -24.673  26.286  33.605  1.00  0.00    -0.388 OA
ATOM    337 'HO2   C A  14     -24.294  26.753  32.860  1.00  0.00     0.210 HD
ATOM    338  O3'   C A  14     -22.422  26.013  32.052  1.00  0.00    -0.279 OA
ATOM    339  P     T A  15     -21.057  26.607  32.665  1.00  0.00     0.408 P 
ATOM    340  OP2   T A  15     -20.115  25.481  32.890  1.00  0.00    -0.624 OA
ATOM    341  O5'   T A  15     -21.491  27.185  34.085  1.00  0.00    -0.287 OA
ATOM    342  OP1   T A  15     -20.646  27.746  31.804  1.00  0.00    -0.624 OA
ATOM    343  C5'   T A  15     -22.382  28.295  34.185  1.00  0.00     0.216 C 
ATOM    344  C4'   T A  15     -22.430  28.799  35.609  1.00  0.00     0.180 C 
ATOM    345  C3'   T A  15     -21.085  28.913  36.312  1.00  0.00     0.198 C 
ATOM    346  O4'   T A  15     -23.182  27.855  36.421  1.00  0.00    -0.353 OA
ATOM    347  O3'   T A  15     -20.435  30.145  36.012  1.00  0.00    -0.279 OA
ATOM    348  C2'   T A  15     -21.478  28.796  37.779  1.00  0.00     0.199 C 
ATOM    349  P     G A  16     -18.829  30.226  36.034  1.00  0.00     0.408 P 
ATOM    350  O5'   G A  16     -18.459  30.146  37.583  1.00  0.00    -0.287 OA
ATOM    351  OP2   G A  16     -18.285  29.018  35.364  1.00  0.00    -0.624 OA
ATOM    352  OP1   G A  16     -18.448  31.574  35.538  1.00  0.00    -0.624 OA
ATOM    353  C5'   G A  16     -18.561  31.294  38.423  1.00  0.00     0.216 C 
ATOM    354  C4'   G A  16     -18.430  30.897  39.874  1.00  0.00     0.180 C 
ATOM    355  C3'   G A  16     -17.045  30.443  40.313  1.00  0.00     0.198 C 
ATOM    356  O4'   G A  16     -19.271  29.743  40.136  1.00  0.00    -0.353 OA
ATOM    357  C2'   G A  16     -17.356  29.598  41.543  1.00  0.00     0.199 C 
ATOM    358  O3'   G A  16     -16.197  31.549  40.614  1.00  0.00    -0.279 OA
ATOM    359  O2'   G A  16     -17.611  30.414  42.671  1.00  0.00    -0.388 OA
ATOM    360  C1'   G A  16     -18.663  28.925  41.121  1.00  0.00     0.262 C 
ATOM    361 'HO2   G A  16     -17.177  31.252  42.507  1.00  0.00     0.210 HD
ATOM    362  N9    G A  16     -18.477  27.589  40.561  1.00  0.00    -0.293 N 
ATOM    363  C4    G A  16     -18.164  26.448  41.261  1.00  0.00     0.187 A 
ATOM    364  C8    G A  16     -18.578  27.218  39.243  1.00  0.00     0.214 A 
ATOM    365  N3    G A  16     -17.968  26.364  42.594  1.00  0.00    -0.044 NA
ATOM    366  C5    G A  16     -18.102  25.445  40.317  1.00  0.00     0.173 A 
ATOM    367  C2    G A  16     -17.682  25.132  42.972  1.00  0.00     0.703 A 
ATOM    368  N1    G A  16     -17.597  24.064  42.115  1.00  0.00    -0.153 N 
ATOM    369  N2    G A  16     -17.454  24.871  44.261  1.00  0.00    -0.233 N 
ATOM    370  H1    G A  16     -17.373  23.163  42.509  1.00  0.00     0.187 HD
ATOM    371  C6    G A  16     -17.794  24.127  40.741  1.00  0.00     0.292 A 
ATOM    372  O6    G A  16     -17.693  23.101  40.058  1.00  0.00    -0.265 OA
ATOM    373  H22   G A  16     -17.231  23.933  44.564  1.00  0.00     0.174 HD
ATOM    374  H21   G A  16     -17.505  25.622  44.934  1.00  0.00     0.174 HD
ATOM    375  N7    G A  16     -18.367  25.945  39.048  1.00  0.00    -0.234 NA
ATOM    376  P     A A  17     -14.599  31.378  40.530  1.00  0.00     0.408 P 
ATOM    377  O5'   A A  17     -14.265  30.293  41.649  1.00  0.00    -0.287 OA
ATOM    378  OP1   A A  17     -13.995  32.670  40.943  1.00  0.00    -0.624 OA
ATOM    379  OP2   A A  17     -14.258  30.799  39.206  1.00  0.00    -0.624 OA
ATOM    380  C5'   A A  17     -14.448  30.585  43.034  1.00  0.00     0.216 C 
ATOM    381  C4'   A A  17     -13.835  29.495  43.883  1.00  0.00     0.180 C 
ATOM    382  O4'   A A  17     -14.689  28.323  43.842  1.00  0.00    -0.353 OA
ATOM    383  C3'   A A  17     -12.482  28.978  43.419  1.00  0.00     0.198 C 
ATOM    384  C1'   A A  17     -13.895  27.153  43.943  1.00  0.00     0.262 C 
ATOM    385  C2'   A A  17     -12.430  27.586  44.039  1.00  0.00     0.199 C 
ATOM    386  N9    A A  17     -14.185  26.302  42.790  1.00  0.00    -0.294 N 
ATOM    387  O2'   A A  17     -12.068  27.650  45.405  1.00  0.00    -0.388 OA
ATOM    388 'HO2   A A  17     -11.662  28.507  45.541  1.00  0.00     0.210 HD
ATOM    389  C4    A A  17     -14.012  24.940  42.726  1.00  0.00     0.167 A 
ATOM    390  C8    A A  17     -14.678  26.675  41.564  1.00  0.00     0.214 A 
ATOM    391  N3    A A  17     -13.547  24.132  43.693  1.00  0.00    -0.222 NA
ATOM    392  C5    A A  17     -14.421  24.568  41.458  1.00  0.00     0.149 A 
ATOM    393  C2    A A  17     -13.522  22.868  43.275  1.00  0.00     0.237 A 
ATOM    394  N1    A A  17     -13.882  22.359  42.090  1.00  0.00    -0.222 NA
ATOM    395  C6    A A  17     -14.343  23.200  41.139  1.00  0.00     0.155 A 
ATOM    396  N6    A A  17     -14.700  22.692  39.959  1.00  0.00    -0.382 N 
ATOM    397  H62   A A  17     -14.620  21.699  39.791  1.00  0.00     0.157 HD
ATOM    398  H61   A A  17     -15.049  23.302  39.234  1.00  0.00     0.157 HD
ATOM    399  N7    A A  17     -14.839  25.675  40.732  1.00  0.00    -0.236 NA
ATOM    400  O3'   A A  17     -11.420  29.815  43.871  1.00  0.00    -0.279 OA
ATOM    401  P     C A  18     -10.130  30.047  42.938  1.00  0.00     0.408 P 
ATOM    402  O5'   C A  18      -9.414  28.624  42.906  1.00  0.00    -0.287 OA
ATOM    403  OP2   C A  18     -10.594  30.359  41.562  1.00  0.00    -0.624 OA
ATOM    404  OP1   C A  18      -9.237  30.998  43.645  1.00  0.00    -0.624 OA
ATOM    405  C5'   C A  18      -8.998  27.980  44.110  1.00  0.00     0.216 C 
ATOM    406  C4'   C A  18      -8.679  26.528  43.840  1.00  0.00     0.180 C 
ATOM    407  C3'   C A  18      -7.719  26.279  42.684  1.00  0.00     0.198 C 
ATOM    408  O4'   C A  18      -9.905  25.844  43.464  1.00  0.00    -0.353 OA
ATOM    409  C2'   C A  18      -8.135  24.898  42.190  1.00  0.00     0.199 C 
ATOM    410  O3'   C A  18      -6.362  26.313  43.121  1.00  0.00    -0.279 OA
ATOM    411  C1'   C A  18      -9.649  24.946  42.401  1.00  0.00     0.264 C 
ATOM    412  O2'   C A  18      -7.592  23.881  43.010  1.00  0.00    -0.388 OA
ATOM    413  N1    C A  18     -10.401  25.402  41.221  1.00  0.00    -0.278 N 
ATOM    414  C2    C A  18     -11.153  24.472  40.497  1.00  0.00     0.352 A 
ATOM    415  C6    C A  18     -10.369  26.713  40.832  1.00  0.00     0.102 A 
ATOM    416  O2    C A  18     -11.171  23.292  40.873  1.00  0.00    -0.244 OA
ATOM    417  N3    C A  18     -11.841  24.881  39.407  1.00  0.00    -0.177 NA
ATOM    418  C4    C A  18     -11.799  26.162  39.036  1.00  0.00     0.128 A 
ATOM    419  C5    C A  18     -11.045  27.132  39.756  1.00  0.00     0.067 A 
ATOM    420  N4    C A  18     -12.489  26.517  37.954  1.00  0.00    -0.384 N 
ATOM    421  H41   C A  18     -12.482  27.477  37.638  1.00  0.00     0.157 HD
ATOM    422  H42   C A  18     -13.021  25.822  37.450  1.00  0.00     0.157 HD
ATOM    423 'HO2   C A  18      -6.882  24.282  43.511  1.00  0.00     0.210 HD
ATOM    424  P     T A  19      -5.253  27.068  42.233  1.00  0.00     0.408 P 
ATOM    425  O5'   T A  19      -4.784  25.966  41.182  1.00  0.00    -0.287 OA
ATOM    426  OP1   T A  19      -4.106  27.370  43.126  1.00  0.00    -0.624 OA
ATOM    427  OP2   T A  19      -5.911  28.173  41.487  1.00  0.00    -0.624 OA
ATOM    428  C1'   T A  15     -22.579  27.739  37.699  1.00  0.00     0.264 C 
ATOM    429  O2'   T A  15     -22.039  30.004  38.261  1.00  0.00    -0.388 OA
ATOM    430  N1    T A  15     -22.083  26.364  37.857  1.00  0.00    -0.280 N 
ATOM    431  C2    T A  15     -22.016  25.845  39.137  1.00  0.00     0.331 A 
ATOM    432  C6    T A  15     -21.693  25.616  36.769  1.00  0.00     0.104 A 
ATOM    433  N3    T A  15     -21.539  24.564  39.219  1.00  0.00    -0.275 N 
ATOM    434  O2    T A  15     -22.354  26.472  40.125  1.00  0.00    -0.246 OA
ATOM    435  H3    T A  15     -21.472  24.169  40.146  1.00  0.00     0.173 HD
ATOM    436  C4    T A  15     -21.135  23.761  38.178  1.00  0.00     0.250 A 
ATOM    437  O4    T A  15     -20.738  22.619  38.415  1.00  0.00    -0.268 OA
ATOM    438  C5    T A  15     -21.236  24.365  36.887  1.00  0.00     0.092 A 
ATOM    439 'HO2   T A  15     -21.312  30.531  38.596  1.00  0.00     0.210 HD
ATOM    440 'HO2   T A  13     -25.328  21.107  29.613  1.00  0.00     0.210 HD
BRANCH 425 441
ATOM    441  C5'   T A  19      -4.043  26.330  40.018  1.00  0.00     0.216 C 
BRANCH 441 442
ATOM    442  C4'   T A  19      -4.536  25.554  38.820  1.00  0.00     0.180 C 
ATOM    443  O4'   T A  19      -4.024  26.181  37.612  1.00  0.00    -0.353 OA
ATOM    444  C1'   T A  19      -3.555  25.192  36.715  1.00  0.00     0.264 C 
ATOM    445  C2'   T A  19      -3.984  23.830  37.257  1.00  0.00     0.199 C 
ATOM    446  C3'   T A  19      -4.060  24.108  38.755  1.00  0.00     0.198 C 
BRANCH 444 447
ATOM    447  N1    T A  19      -2.100  25.350  36.575  1.00  0.00    -0.280 N 
ATOM    448  C2    T A  19      -1.500  24.818  35.449  1.00  0.00     0.331 A 
ATOM    449  O2    T A  19      -2.121  24.222  34.586  1.00  0.00    -0.246 OA
ATOM    450  N3    T A  19      -0.145  25.007  35.370  1.00  0.00    -0.275 N 
ATOM    451  H3    T A  19       0.311  24.637  34.551  1.00  0.00     0.173 HD
ATOM    452  C4    T A  19       0.657  25.653  36.283  1.00  0.00     0.250 A 
ATOM    453  O4    T A  19       1.864  25.752  36.064  1.00  0.00    -0.268 OA
ATOM    454  C5    T A  19      -0.035  26.169  37.422  1.00  0.00     0.092 A 
ATOM    455  C6    T A  19      -1.357  26.007  37.530  1.00  0.00     0.104 A 
ENDBRANCH 444 447
BRANCH 445 456
ATOM    456  O2'   T A  19      -5.259  23.513  36.729  1.00  0.00    -0.388 OA
ATOM    457 'HO2   T A  19      -5.115  23.211  35.832  1.00  0.00     0.210 HD
ENDBRANCH 445 456
BRANCH 446 458
ATOM    458  O3'   T A  19      -4.974  23.239  39.419  1.00  0.00    -0.279 OA
BRANCH 458 459
ATOM    459  P     C A  20      -4.479  22.375  40.682  1.00  0.00     0.408 P 
ATOM    460  OP2   C A  20      -2.997  22.436  40.746  1.00  0.00    -0.624 OA
ATOM    461  OP1   C A  20      -5.283  22.809  41.854  1.00  0.00    -0.624 OA
BRANCH 459 462
ATOM    462  O5'   C A  20      -4.908  20.886  40.313  1.00  0.00    -0.287 OA
BRANCH 462 463
ATOM    463  C5'   C A  20      -3.991  19.801  40.436  1.00  0.00     0.216 C 
ATOM    464  C4'   C A  20      -4.659  18.510  40.026  1.00  0.00     0.180 C 
ATOM    465  C3'   C A  20      -5.618  18.625  38.848  1.00  0.00     0.198 C 
ATOM    466  O4'   C A  20      -5.476  18.037  41.133  1.00  0.00    -0.353 OA
ATOM    467  C2'   C A  20      -6.624  17.514  39.124  1.00  0.00     0.199 C 
ATOM    468  C1'   C A  20      -6.727  17.583  40.647  1.00  0.00     0.264 C 
ATOM    469  N1    C A  20      -7.774  18.498  41.133  1.00  0.00    -0.278 N 
ATOM    470  C2    C A  20      -9.009  17.968  41.519  1.00  0.00     0.352 A 
ATOM    471  C6    C A  20      -7.548  19.845  41.209  1.00  0.00     0.102 A 
ATOM    472  O2    C A  20      -9.187  16.745  41.441  1.00  0.00    -0.244 OA
ATOM    473  N3    C A  20      -9.975  18.802  41.965  1.00  0.00    -0.177 NA
ATOM    474  C4    C A  20      -9.744  20.113  42.034  1.00  0.00     0.128 A 
ATOM    475  C5    C A  20      -8.496  20.681  41.650  1.00  0.00     0.067 A 
ATOM    476  N4    C A  20     -10.727  20.894  42.482  1.00  0.00    -0.384 N 
ATOM    477  H42   C A  20     -11.607  20.476  42.753  1.00  0.00     0.157 HD
ATOM    478  H41   C A  20     -10.595  21.891  42.550  1.00  0.00     0.157 HD
BRANCH 465 479
ATOM    479  O3'   C A  20      -4.940  18.450  37.606  1.00  0.00    -0.279 OA
BRANCH 479 480
ATOM    480  P     C A  21      -4.954  19.632  36.516  1.00  0.00     0.408 P 
ATOM    481  OP2   C A  21      -5.277  19.044  35.189  1.00  0.00    -0.624 OA
ATOM    482  OP1   C A  21      -5.799  20.724  37.058  1.00  0.00    -0.624 OA
BRANCH 480 483
ATOM    483  O5'   C A  21      -3.445  20.141  36.485  1.00  0.00    -0.287 OA
BRANCH 483 484
ATOM    484  C5'   C A  21      -2.944  20.893  35.382  1.00  0.00     0.216 C 
BRANCH 484 485
ATOM    485  C4'   C A  21      -1.474  20.613  35.186  1.00  0.00     0.180 C 
ATOM    486  C3'   C A  21      -1.055  20.328  33.749  1.00  0.00     0.198 C 
ATOM    487  O3'   C A  21      -0.764  21.531  33.043  1.00  0.00    -0.279 OA
ATOM    488  C2'   C A  21       0.175  19.448  33.933  1.00  0.00     0.199 C 
ATOM    489  P     A A  22      -1.283  21.716  31.532  1.00  0.00     0.408 P 
ATOM    490  OP2   A A  22      -2.739  21.423  31.500  1.00  0.00    -0.624 OA
ATOM    491  O5'   A A  22      -0.524  20.574  30.721  1.00  0.00    -0.287 OA
ATOM    492  OP1   A A  22      -0.790  23.032  31.053  1.00  0.00    -0.624 OA
ATOM    493  C5'   A A  22       0.897  20.584  30.596  1.00  0.00     0.216 C 
ATOM    494  C4'   A A  22       1.367  19.352  29.857  1.00  0.00     0.180 C 
ATOM    495  C3'   A A  22       0.546  18.969  28.633  1.00  0.00     0.198 C 
ATOM    496  O4'   A A  22       1.260  18.200  30.741  1.00  0.00    -0.353 OA
ATOM    497  O3'   A A  22       0.973  19.670  27.469  1.00  0.00    -0.279 OA
ATOM    498  C2'   A A  22       0.794  17.471  28.536  1.00  0.00     0.199 C 
ATOM    499  P     G A  23      -0.099  20.066  26.337  1.00  0.00     0.408 P 
ATOM    500  OP2   G A  23      -1.224  20.789  26.986  1.00  0.00    -0.624 OA
ATOM    501  OP1   G A  23       0.649  20.716  25.232  1.00  0.00    -0.624 OA
ATOM    502  C1'   A A  22       0.774  17.084  30.013  1.00  0.00     0.262 C 
ATOM    503  O2'   A A  22       2.078  17.198  28.009  1.00  0.00    -0.388 OA
ATOM    504  N9    A A  22      -0.561  16.754  30.515  1.00  0.00    -0.294 N 
ATOM    505  C4    A A  22      -1.247  15.583  30.301  1.00  0.00     0.167 A 
ATOM    506  C8    A A  22      -1.385  17.535  31.287  1.00  0.00     0.214 A 
ATOM    507  N3    A A  22      -0.838  14.514  29.595  1.00  0.00    -0.222 NA
ATOM    508  C5    A A  22      -2.454  15.728  30.960  1.00  0.00     0.149 A 
ATOM    509  C2    A A  22      -1.769  13.563  29.602  1.00  0.00     0.237 A 
ATOM    510  N1    A A  22      -2.971  13.559  30.191  1.00  0.00    -0.222 NA
ATOM    511  C6    A A  22      -3.352  14.648  30.891  1.00  0.00     0.155 A 
ATOM    512  N6    A A  22      -4.549  14.643  31.477  1.00  0.00    -0.382 N 
ATOM    513  H61   A A  22      -4.852  15.448  32.006  1.00  0.00     0.157 HD
ATOM    514  H62   A A  22      -5.148  13.835  31.390  1.00  0.00     0.157 HD
ATOM    515  N7    A A  22      -2.528  16.967  31.581  1.00  0.00    -0.236 NA
ATOM    516 'HO2   A A  22       2.337  17.971  27.506  1.00  0.00     0.210 HD
ATOM    517  C1'   C A  21      -0.239  18.615  35.146  1.00  0.00     0.264 C 
ATOM    518  O2'   C A  21       1.310  20.220  34.276  1.00  0.00    -0.388 OA
ATOM    519  N1    C A  21      -0.926  17.359  34.800  1.00  0.00    -0.278 N 
ATOM    520  O4'   C A  21      -1.121  19.409  35.920  1.00  0.00    -0.353 OA
ATOM    521  C6    C A  21      -2.281  17.239  34.936  1.00  0.00     0.102 A 
ATOM    522  C2    C A  21      -0.169  16.284  34.325  1.00  0.00     0.352 A 
ATOM    523  C5    C A  21      -2.911  16.101  34.620  1.00  0.00     0.067 A 
ATOM    524  C4    C A  21      -2.113  15.024  34.138  1.00  0.00     0.128 A 
ATOM    525  N4    C A  21      -2.680  13.865  33.806  1.00  0.00    -0.384 N 
ATOM    526  N3    C A  21      -0.790  15.129  34.002  1.00  0.00    -0.177 NA
ATOM    527  H41   C A  21      -3.679  13.745  33.893  1.00  0.00     0.157 HD
ATOM    528  H42   C A  21      -2.103  13.111  33.462  1.00  0.00     0.157 HD
ATOM    529  O2    C A  21       1.059  16.418  34.211  1.00  0.00    -0.244 OA
ATOM    530 'HO2   C A  21       1.096  21.130  34.065  1.00  0.00     0.210 HD
BRANCH 499 531
ATOM    531  O5'   G A  23      -0.642  18.662  25.812  1.00  0.00    -0.287 OA
BRANCH 531 532
ATOM    532  C5'   G A  23      -1.473  18.582  24.656  1.00  0.00     0.216 C 
BRANCH 532 533
ATOM    533  C4'   G A  23      -0.754  17.856  23.543  1.00  0.00     0.180 C 
ATOM    534  C3'   G A  23      -1.472  16.637  22.982  1.00  0.00     0.198 C 
ATOM    535  C2'   G A  23      -0.323  15.824  22.398  1.00  0.00     0.199 C 
ATOM    536  C1'   G A  23       0.778  16.082  23.427  1.00  0.00     0.262 C 
ATOM    537  N9    G A  23       0.863  15.055  24.459  1.00  0.00    -0.293 N 
ATOM    538  O4'   G A  23       0.500  17.325  24.051  1.00  0.00    -0.353 OA
ATOM    539  C4    G A  23       1.205  13.738  24.271  1.00  0.00     0.187 A 
ATOM    540  C8    G A  23       0.618  15.203  25.803  1.00  0.00     0.214 A 
ATOM    541  N3    G A  23       1.524  13.162  23.094  1.00  0.00    -0.044 NA
ATOM    542  C5    G A  23       1.146  13.162  25.523  1.00  0.00     0.173 A 
ATOM    543  C2    G A  23       1.803  11.879  23.233  1.00  0.00     0.703 A 
ATOM    544  N2    G A  23       2.138  11.155  22.160  1.00  0.00    -0.233 N 
ATOM    545  N1    G A  23       1.775  11.211  24.429  1.00  0.00    -0.153 N 
ATOM    546  H21   G A  23       2.172  11.607  21.257  1.00  0.00     0.174 HD
ATOM    547  H22   G A  23       2.347  10.172  22.248  1.00  0.00     0.174 HD
ATOM    548  H1    G A  23       2.004  10.229  24.428  1.00  0.00     0.187 HD
ATOM    549  C6    G A  23       1.451  11.781  25.654  1.00  0.00     0.292 A 
ATOM    550  O6    G A  23       1.458  11.086  26.676  1.00  0.00    -0.265 OA
ATOM    551  N7    G A  23       0.775  14.098  26.479  1.00  0.00    -0.234 NA
BRANCH 534 552
ATOM    552  O3'   G A  23      -2.437  17.001  21.999  1.00  0.00    -0.279 OA
BRANCH 552 553
ATOM    553  P     A A  24      -3.741  16.084  21.782  1.00  0.00     0.408 P 
ATOM    554  OP1   A A  24      -3.960  15.323  23.040  1.00  0.00    -0.624 OA
ATOM    555  OP2   A A  24      -3.595  15.351  20.499  1.00  0.00    -0.624 OA
BRANCH 553 556
ATOM    556  O5'   A A  24      -4.930  17.133  21.624  1.00  0.00    -0.287 OA
BRANCH 556 557
ATOM    557  C5'   A A  24      -5.771  17.125  20.472  1.00  0.00     0.216 C 
BRANCH 557 558
ATOM    558  C4'   A A  24      -7.215  17.299  20.877  1.00  0.00     0.180 C 
ATOM    559  C3'   A A  24      -7.474  17.330  22.377  1.00  0.00     0.198 C 
ATOM    560  O3'   A A  24      -7.308  18.641  22.911  1.00  0.00    -0.279 OA
ATOM    561  C2'   A A  24      -8.914  16.841  22.472  1.00  0.00     0.199 C 
ATOM    562  P     T A  25      -6.834  18.828  24.437  1.00  0.00     0.408 P 
ATOM    563  OP1   T A  25      -6.857  20.282  24.734  1.00  0.00    -0.624 OA
ATOM    564  O5'   T A  25      -7.985  18.126  25.288  1.00  0.00    -0.287 OA
ATOM    565  OP2   T A  25      -5.579  18.059  24.636  1.00  0.00    -0.624 OA
ATOM    566  C5'   T A  25      -9.303  18.669  25.331  1.00  0.00     0.216 C 
ATOM    567  C4'   T A  25     -10.168  17.866  26.274  1.00  0.00     0.180 C 
ATOM    568  C3'   T A  25      -9.526  17.514  27.609  1.00  0.00     0.198 C 
ATOM    569  O4'   T A  25     -10.465  16.582  25.662  1.00  0.00    -0.353 OA
ATOM    570  O3'   T A  25      -9.691  18.561  28.560  1.00  0.00    -0.279 OA
ATOM    571  C2'   T A  25     -10.268  16.243  28.009  1.00  0.00     0.199 C 
ATOM    572  P     C A  26      -8.755  18.608  29.867  1.00  0.00     0.408 P 
ATOM    573  OP1   C A  26      -9.011  19.901  30.550  1.00  0.00    -0.624 OA
ATOM    574  O5'   C A  26      -9.324  17.441  30.791  1.00  0.00    -0.287 OA
ATOM    575  OP2   C A  26      -7.369  18.252  29.464  1.00  0.00    -0.624 OA
ATOM    576  C5'   C A  26      -8.464  16.700  31.654  1.00  0.00     0.216 C 
ATOM    577  C4'   C A  26      -9.174  15.471  32.169  1.00  0.00     0.180 C 
ATOM    578  C3'   C A  26      -8.327  14.559  33.049  1.00  0.00     0.198 C 
ATOM    579  O4'   C A  26      -9.569  14.648  31.036  1.00  0.00    -0.353 OA
ATOM    580  O3'   C A  26      -8.422  14.929  34.422  1.00  0.00    -0.279 OA
ATOM    581  C2'   C A  26      -8.917  13.183  32.775  1.00  0.00     0.199 C 
ATOM    582  P     A A  27      -7.121  15.470  35.199  1.00  0.00     0.408 P 
ATOM    583  OP1   A A  27      -7.594  16.435  36.225  1.00  0.00    -0.624 OA
ATOM    584  OP2   A A  27      -6.107  15.900  34.203  1.00  0.00    -0.624 OA
ATOM    585  O5'   A A  27      -6.564  14.183  35.954  1.00  0.00    -0.287 OA
ATOM    586  C5'   A A  27      -7.421  13.380  36.764  1.00  0.00     0.216 C 
ATOM    587  C4'   A A  27      -6.750  12.068  37.094  1.00  0.00     0.180 C 
ATOM    588  C3'   A A  27      -5.231  12.107  37.186  1.00  0.00     0.198 C 
ATOM    589  O4'   A A  27      -7.021  11.117  36.025  1.00  0.00    -0.353 OA
ATOM    590  C2'   A A  27      -4.856  10.666  36.870  1.00  0.00     0.199 C 
ATOM    591  O2'   A A  27      -5.118   9.812  37.967  1.00  0.00    -0.388 OA
ATOM    592  C1'   A A  27      -5.856  10.355  35.758  1.00  0.00     0.262 C 
ATOM    593 'HO2   A A  27      -4.950  10.323  38.760  1.00  0.00     0.210 HD
ATOM    594  N9    A A  27      -5.371  10.702  34.423  1.00  0.00    -0.294 N 
ATOM    595  C4    A A  27      -4.540   9.940  33.636  1.00  0.00     0.167 A 
ATOM    596  C8    A A  27      -5.637  11.837  33.697  1.00  0.00     0.214 A 
ATOM    597  N3    A A  27      -4.017   8.738  33.930  1.00  0.00    -0.222 NA
ATOM    598  C5    A A  27      -4.349  10.667  32.475  1.00  0.00     0.149 A 
ATOM    599  C2    A A  27      -3.254   8.302  32.931  1.00  0.00     0.237 A 
ATOM    600  N1    A A  27      -2.977   8.887  31.758  1.00  0.00    -0.222 NA
ATOM    601  C6    A A  27      -3.520  10.095  31.494  1.00  0.00     0.155 A 
ATOM    602  N6    A A  27      -3.242  10.675  30.326  1.00  0.00    -0.382 N 
ATOM    603  H61   A A  27      -3.637  11.578  30.106  1.00  0.00     0.157 HD
ATOM    604  H62   A A  27      -2.638  10.210  29.662  1.00  0.00     0.157 HD
ATOM    605  N7    A A  27      -5.049  11.865  32.525  1.00  0.00    -0.236 NA
ATOM    606  O2'   C A  26     -10.123  12.989  33.491  1.00  0.00    -0.388 OA
ATOM    607  C1'   C A  26      -9.241  13.294  31.287  1.00  0.00     0.264 C 
ATOM    608 'HO2   C A  26     -10.115  13.617  34.214  1.00  0.00     0.210 HD
ATOM    609  N1    C A  26      -8.128  12.915  30.399  1.00  0.00    -0.278 N 
ATOM    610  C6    C A  26      -7.549  13.835  29.569  1.00  0.00     0.102 A 
ATOM    611  C2    C A  26      -7.670  11.594  30.414  1.00  0.00     0.352 A 
ATOM    612  C5    C A  26      -6.541  13.495  28.756  1.00  0.00     0.067 A 
ATOM    613  C4    C A  26      -6.097  12.143  28.792  1.00  0.00     0.128 A 
ATOM    614  N4    C A  26      -5.099  11.746  28.005  1.00  0.00    -0.384 N 
ATOM    615  N3    C A  26      -6.652  11.238  29.599  1.00  0.00    -0.177 NA
ATOM    616  H41   C A  26      -4.650  12.399  27.380  1.00  0.00     0.157 HD
ATOM    617  H42   C A  26      -4.792  10.783  28.032  1.00  0.00     0.157 HD
ATOM    618  O2    C A  26      -8.208  10.780  31.177  1.00  0.00    -0.244 OA
ATOM    619  C1'   T A  25     -10.462  15.567  26.651  1.00  0.00     0.264 C 
ATOM    620  O2'   T A  25     -11.540  16.540  28.553  1.00  0.00    -0.388 OA
ATOM    621  N1    T A  25      -9.411  14.597  26.317  1.00  0.00    -0.280 N 
ATOM    622  C6    T A  25      -8.300  14.966  25.591  1.00  0.00     0.104 A 
ATOM    623  C2    T A  25      -9.574  13.295  26.753  1.00  0.00     0.331 A 
ATOM    624  C5    T A  25      -7.333  14.101  25.272  1.00  0.00     0.092 A 
ATOM    625  C4    T A  25      -7.430  12.737  25.689  1.00  0.00     0.250 A 
ATOM    626  N3    T A  25      -8.563  12.437  26.408  1.00  0.00    -0.275 N 
ATOM    627  O4    T A  25      -6.602  11.853  25.471  1.00  0.00    -0.268 OA
ATOM    628  H3    T A  25      -8.670  11.478  26.708  1.00  0.00     0.173 HD
ATOM    629  O2    T A  25     -10.540  12.929  27.398  1.00  0.00    -0.246 OA
ATOM    630 'HO2   T A  25     -11.423  17.286  29.142  1.00  0.00     0.210 HD
ATOM    631  C1'   A A  24      -8.936  15.780  21.373  1.00  0.00     0.262 C 
ATOM    632  O4'   A A  24      -7.980  16.158  20.398  1.00  0.00    -0.353 OA
BRANCH 588 633
ATOM    633  O3'   A A  27      -4.788  12.520  38.476  1.00  0.00    -0.279 OA
BRANCH 633 634
ATOM    634  P     G A  28      -3.664  13.664  38.604  1.00  0.00     0.408 P 
ATOM    635  OP2   G A  28      -2.344  13.014  38.809  1.00  0.00    -0.624 OA
ATOM    636  OP1   G A  28      -3.852  14.595  37.461  1.00  0.00    -0.624 OA
BRANCH 634 637
ATOM    637  O5'   G A  28      -4.054  14.441  39.939  1.00  0.00    -0.287 OA
BRANCH 637 638
ATOM    638  C5'   G A  28      -3.074  15.172  40.674  1.00  0.00     0.216 C 
BRANCH 638 639
ATOM    639  C4'   G A  28      -2.848  14.536  42.027  1.00  0.00     0.180 C 
ATOM    640  C3'   G A  28      -1.525  13.810  42.206  1.00  0.00     0.198 C 
ATOM    641  C2'   G A  28      -1.823  12.878  43.377  1.00  0.00     0.199 C 
ATOM    642  O2'   G A  28      -1.742  13.572  44.607  1.00  0.00    -0.388 OA
ATOM    643  C1'   G A  28      -3.287  12.514  43.117  1.00  0.00     0.262 C 
ATOM    644 'HO2   G A  28      -1.300  14.402  44.426  1.00  0.00     0.210 HD
ATOM    645  O4'   G A  28      -3.831  13.494  42.250  1.00  0.00    -0.353 OA
ATOM    646  N9    G A  28      -3.462  11.201  42.502  1.00  0.00    -0.293 N 
ATOM    647  C8    G A  28      -3.946  10.928  41.246  1.00  0.00     0.214 A 
ATOM    648  C4    G A  28      -3.169   9.987  43.075  1.00  0.00     0.187 A 
ATOM    649  N7    G A  28      -3.988   9.652  40.976  1.00  0.00    -0.234 NA
ATOM    650  C5    G A  28      -3.498   9.044  42.126  1.00  0.00     0.173 A 
ATOM    651  C6    G A  28      -3.304   7.670  42.430  1.00  0.00     0.292 A 
ATOM    652  O6    G A  28      -3.534   6.682  41.722  1.00  0.00    -0.265 OA
ATOM    653  N1    G A  28      -2.786   7.498  43.708  1.00  0.00    -0.153 N 
ATOM    654  C2    G A  28      -2.491   8.514  44.581  1.00  0.00     0.703 A 
ATOM    655  H1    G A  28      -2.614   6.554  44.014  1.00  0.00     0.187 HD
ATOM    656  N3    G A  28      -2.665   9.795  44.313  1.00  0.00    -0.044 NA
ATOM    657  N2    G A  28      -1.996   8.146  45.766  1.00  0.00    -0.233 N 
ATOM    658  H21   G A  28      -1.762   8.856  46.443  1.00  0.00     0.174 HD
ATOM    659  H22   G A  28      -1.858   7.169  45.982  1.00  0.00     0.174 HD
BRANCH 640 660
ATOM    660  O3'   G A  28      -0.463  14.718  42.488  1.00  0.00    -0.279 OA
BRANCH 660 661
ATOM    661  P     A A  29       0.827  14.764  41.526  1.00  0.00     0.408 P 
ATOM    662  OP2   A A  29       0.363  14.933  40.126  1.00  0.00    -0.624 OA
ATOM    663  OP1   A A  29       1.772  15.750  42.110  1.00  0.00    -0.624 OA
BRANCH 661 664
ATOM    664  O5'   A A  29       1.471  13.314  41.673  1.00  0.00    -0.287 OA
BRANCH 664 665
ATOM    665  C5'   A A  29       1.303  12.330  40.653  1.00  0.00     0.216 C 
BRANCH 665 666
ATOM    666  C4'   A A  29       2.637  11.992  40.028  1.00  0.00     0.180 C 
ATOM    667  O4'   A A  29       2.788  10.550  39.976  1.00  0.00    -0.353 OA
ATOM    668  C1'   A A  29       3.551  10.194  38.836  1.00  0.00     0.262 C 
ATOM    669  N9    A A  29       2.772   9.243  38.040  1.00  0.00    -0.294 N 
ATOM    670  C2'   A A  29       3.905  11.481  38.086  1.00  0.00     0.199 C 
ATOM    671  C8    A A  29       1.409   9.078  38.019  1.00  0.00     0.214 A 
ATOM    672  C4    A A  29       3.276   8.323  37.153  1.00  0.00     0.167 A 
ATOM    673  N7    A A  29       1.005   8.136  37.201  1.00  0.00    -0.236 NA
ATOM    674  C5    A A  29       2.180   7.649  36.645  1.00  0.00     0.149 A 
ATOM    675  C6    A A  29       2.435   6.639  35.700  1.00  0.00     0.155 A 
ATOM    676  N6    A A  29       1.481   5.903  35.126  1.00  0.00    -0.382 N 
ATOM    677  N1    A A  29       3.721   6.405  35.361  1.00  0.00    -0.222 NA
ATOM    678  H62   A A  29       1.728   5.190  34.453  1.00  0.00     0.157 HD
ATOM    679  H61   A A  29       0.512   6.061  35.366  1.00  0.00     0.157 HD
ATOM    680  C2    A A  29       4.680   7.141  35.940  1.00  0.00     0.237 A 
ATOM    681  N3    A A  29       4.567   8.115  36.839  1.00  0.00    -0.222 NA
ATOM    682  O2'   A A  29       5.186  11.909  38.508  1.00  0.00    -0.388 OA
ATOM    683  C3'   A A  29       2.820  12.431  38.583  1.00  0.00     0.198 C 
ATOM    684 'HO2   A A  29       5.124  12.852  38.654  1.00  0.00     0.210 HD
ATOM    685  O3'   A A  29       3.212  13.798  38.500  1.00  0.00    -0.279 OA
ATOM    686  P     A A  30       2.845  14.659  37.191  1.00  0.00     0.408 P 
ATOM    687  O5'   A A  30       3.894  14.165  36.097  1.00  0.00    -0.287 OA
ATOM    688  OP2   A A  30       1.484  14.277  36.737  1.00  0.00    -0.624 OA
ATOM    689  OP1   A A  30       3.138  16.077  37.518  1.00  0.00    -0.624 OA
ATOM    690  C5'   A A  30       5.296  14.343  36.291  1.00  0.00     0.216 C 
ATOM    691  C4'   A A  30       6.069  13.641  35.199  1.00  0.00     0.180 C 
ATOM    692  C3'   A A  30       5.608  13.918  33.777  1.00  0.00     0.198 C 
ATOM    693  O4'   A A  30       5.899  12.208  35.338  1.00  0.00    -0.353 OA
ATOM    694  O3'   A A  30       6.145  15.144  33.285  1.00  0.00    -0.279 OA
ATOM    695  C2'   A A  30       6.132  12.704  33.015  1.00  0.00     0.199 C 
ATOM    696  P     G A  31       5.499  15.838  31.985  1.00  0.00     0.408 P 
ATOM    697  O5'   G A  31       6.025  14.942  30.774  1.00  0.00    -0.287 OA
ATOM    698  OP1   G A  31       6.118  17.182  31.863  1.00  0.00    -0.624 OA
ATOM    699  OP2   G A  31       4.020  15.716  32.066  1.00  0.00    -0.624 OA
ATOM    700  C5'   G A  31       5.157  14.039  30.087  1.00  0.00     0.216 C 
ATOM    701  C4'   G A  31       4.635  14.676  28.818  1.00  0.00     0.180 C 
ATOM    702  O4'   G A  31       4.720  16.123  28.953  1.00  0.00    -0.353 OA
ATOM    703  C3'   G A  31       5.418  14.340  27.552  1.00  0.00     0.198 C 
ATOM    704  C1'   G A  31       5.290  16.682  27.786  1.00  0.00     0.262 C 
ATOM    705  C2'   G A  31       5.258  15.600  26.709  1.00  0.00     0.199 C 
ATOM    706  N9    G A  31       6.630  17.162  28.117  1.00  0.00    -0.293 N 
ATOM    707  O2'   G A  31       3.996  15.633  26.069  1.00  0.00    -0.388 OA
ATOM    708 'HO2   G A  31       3.585  14.781  26.224  1.00  0.00     0.210 HD
ATOM    709  C4    G A  31       7.818  16.730  27.573  1.00  0.00     0.187 A 
ATOM    710  C8    G A  31       6.955  18.135  29.030  1.00  0.00     0.214 A 
ATOM    711  N3    G A  31       7.957  15.775  26.631  1.00  0.00    -0.044 NA
ATOM    712  C5    G A  31       8.796  17.476  28.195  1.00  0.00     0.173 A 
ATOM    713  C2    G A  31       9.222  15.582  26.309  1.00  0.00     0.703 A 
ATOM    714  N2    G A  31       9.537  14.666  25.388  1.00  0.00    -0.233 N 
ATOM    715  N1    G A  31      10.271  16.269  26.864  1.00  0.00    -0.153 N 
ATOM    716  H22   G A  31      10.498  14.505  25.126  1.00  0.00     0.174 HD
ATOM    717  H21   G A  31       8.794  14.137  24.955  1.00  0.00     0.174 HD
ATOM    718  C6    G A  31      10.153  17.254  27.836  1.00  0.00     0.292 A 
ATOM    719  H1    G A  31      11.201  16.048  26.546  1.00  0.00     0.187 HD
ATOM    720  O6    G A  31      11.168  17.810  28.273  1.00  0.00    -0.265 OA
ATOM    721  N7    G A  31       8.238  18.357  29.111  1.00  0.00    -0.234 NA
ATOM    722  O2'   A A  30       7.499  12.859  32.682  1.00  0.00    -0.388 OA
ATOM    723  C1'   A A  30       6.012  11.596  34.066  1.00  0.00     0.262 C 
ATOM    724 'HO2   A A  30       7.646  13.794  32.540  1.00  0.00     0.210 HD
ATOM    725  N9    A A  30       4.853  10.728  33.864  1.00  0.00    -0.294 N 
ATOM    726  C8    A A  30       3.559  10.935  34.273  1.00  0.00     0.214 A 
ATOM    727  C4    A A  30       4.849   9.522  33.207  1.00  0.00     0.167 A 
ATOM    728  N7    A A  30       2.736   9.974  33.930  1.00  0.00    -0.236 NA
ATOM    729  C5    A A  30       3.543   9.071  33.252  1.00  0.00     0.149 A 
ATOM    730  C6    A A  30       3.273   7.837  32.631  1.00  0.00     0.155 A 
ATOM    731  N6    A A  30       2.065   7.277  32.588  1.00  0.00    -0.382 N 
ATOM    732  N1    A A  30       4.304   7.190  32.046  1.00  0.00    -0.222 NA
ATOM    733  H61   A A  30       1.279   7.743  33.018  1.00  0.00     0.157 HD
ATOM    734  H62   A A  30       1.930   6.391  32.120  1.00  0.00     0.157 HD
ATOM    735  C2    A A  30       5.520   7.752  32.086  1.00  0.00     0.237 A 
ATOM    736  N3    A A  30       5.897   8.904  32.634  1.00  0.00    -0.222 NA
BRANCH 703 737
ATOM    737  O3'   G A  31       4.888  13.182  26.909  1.00  0.00    -0.279 OA
BRANCH 737 738
ATOM    738  P     G A  32       5.692  11.789  26.971  1.00  0.00     0.408 P 
ATOM    739  OP2   G A  32       7.010  12.053  27.600  1.00  0.00    -0.624 OA
ATOM    740  OP1   G A  32       4.795  10.756  27.555  1.00  0.00    -0.624 OA
BRANCH 738 741
ATOM    741  O5'   G A  32       5.947  11.422  25.439  1.00  0.00    -0.287 OA
BRANCH 741 742
ATOM    742  C5'   G A  32       6.106  10.067  25.021  1.00  0.00     0.216 C 
BRANCH 742 743
ATOM    743  C4'   G A  32       4.917   9.632  24.197  1.00  0.00     0.180 C 
ATOM    744  C3'   G A  32       4.267   8.323  24.630  1.00  0.00     0.198 C 
ATOM    745  C2'   G A  32       3.703   7.775  23.325  1.00  0.00     0.199 C 
ATOM    746  O3'   G A  32       3.251   8.543  25.605  1.00  0.00    -0.279 OA
ATOM    747  O2'   G A  32       2.483   8.408  22.990  1.00  0.00    -0.388 OA
ATOM    748  C1'   G A  32       4.774   8.217  22.329  1.00  0.00     0.262 C 
ATOM    749 'HO2   G A  32       2.091   8.699  23.815  1.00  0.00     0.210 HD
ATOM    750  N9    G A  32       5.835   7.235  22.126  1.00  0.00    -0.293 N 
ATOM    751  O4'   G A  32       5.359   9.403  22.831  1.00  0.00    -0.353 OA
ATOM    752  C4    G A  32       5.688   5.969  21.614  1.00  0.00     0.187 A 
ATOM    753  C8    G A  32       7.171   7.385  22.406  1.00  0.00     0.214 A 
ATOM    754  C5    G A  32       6.954   5.424  21.612  1.00  0.00     0.173 A 
ATOM    755  N3    G A  32       4.530   5.409  21.206  1.00  0.00    -0.044 NA
ATOM    756  N7    G A  32       7.881   6.330  22.113  1.00  0.00    -0.234 NA
ATOM    757  C6    G A  32       7.128   4.102  21.129  1.00  0.00     0.292 A 
ATOM    758  N1    G A  32       5.923   3.547  20.714  1.00  0.00    -0.153 N 
ATOM    759  O6    G A  32       8.169   3.441  21.046  1.00  0.00    -0.265 OA
ATOM    760  H1    G A  32       5.948   2.607  20.352  1.00  0.00     0.187 HD
ATOM    761  C2    G A  32       4.708   4.180  20.759  1.00  0.00     0.703 A 
ATOM    762  N2    G A  32       3.662   3.479  20.314  1.00  0.00    -0.233 N 
ATOM    763  H21   G A  32       2.745   3.901  20.327  1.00  0.00     0.174 HD
ATOM    764  H22   G A  32       3.787   2.538  19.967  1.00  0.00     0.174 HD
ATOM    765  P     C A  33       3.001   7.454  26.762  1.00  0.00     0.408 P 
ATOM    766  O5'   C A  33       2.556   6.142  25.972  1.00  0.00    -0.287 OA
ATOM    767  OP2   C A  33       4.299   7.178  27.427  1.00  0.00    -0.624 OA
ATOM    768  OP1   C A  33       1.848   7.927  27.570  1.00  0.00    -0.624 OA
ATOM    769  C5'   C A  33       1.218   5.988  25.501  1.00  0.00     0.216 C 
ATOM    770  C4'   C A  33       1.057   4.656  24.804  1.00  0.00     0.180 C 
ATOM    771  C3'   C A  33       1.294   3.424  25.666  1.00  0.00     0.198 C 
ATOM    772  O4'   C A  33       2.052   4.546  23.753  1.00  0.00    -0.353 OA
ATOM    773  O3'   C A  33       0.128   3.078  26.411  1.00  0.00    -0.279 OA
ATOM    774  C2'   C A  33       1.662   2.364  24.633  1.00  0.00     0.199 C 
ATOM    775  P     T A  34       0.246   2.083  27.671  1.00  0.00     0.408 P 
ATOM    776  OP2   T A  34       1.134   2.706  28.686  1.00  0.00    -0.624 OA
ATOM    777  OP1   T A  34      -1.137   1.691  28.048  1.00  0.00    -0.624 OA
ATOM    778  O5'   T A  34       0.985   0.798  27.086  1.00  0.00    -0.287 OA
ATOM    779  C5'   T A  34       0.312  -0.102  26.205  1.00  0.00     0.216 C 
ATOM    780  C4'   T A  34       1.113  -1.373  26.043  1.00  0.00     0.180 C 
ATOM    781  C3'   T A  34       1.680  -1.964  27.324  1.00  0.00     0.198 C 
ATOM    782  O4'   T A  34       2.287  -1.099  25.234  1.00  0.00    -0.353 OA
ATOM    783  C2'   T A  34       2.854  -2.792  26.813  1.00  0.00     0.199 C 
ATOM    784  O3'   T A  34       0.710  -2.755  28.006  1.00  0.00    -0.279 OA
ATOM    785  O2'   T A  34       2.410  -4.031  26.294  1.00  0.00    -0.388 OA
ATOM    786  C1'   T A  34       3.358  -1.924  25.656  1.00  0.00     0.264 C 
ATOM    787 'HO2   T A  34       1.513  -4.144  26.610  1.00  0.00     0.210 HD
ATOM    788  N1    T A  34       4.492  -1.060  26.015  1.00  0.00    -0.280 N 
ATOM    789  C2    T A  34       5.745  -1.409  25.543  1.00  0.00     0.331 A 
ATOM    790  C6    T A  34       4.316   0.060  26.798  1.00  0.00     0.104 A 
ATOM    791  N3    T A  34       6.761  -0.568  25.918  1.00  0.00    -0.275 N 
ATOM    792  O2    T A  34       5.942  -2.388  24.845  1.00  0.00    -0.246 OA
ATOM    793  H3    T A  34       7.685  -0.808  25.592  1.00  0.00     0.173 HD
ATOM    794  C4    T A  34       6.657   0.562  26.695  1.00  0.00     0.250 A 
ATOM    795  C5    T A  34       5.332   0.858  27.142  1.00  0.00     0.092 A 
ATOM    796  O4    T A  34       7.669   1.219  26.943  1.00  0.00    -0.268 OA
ATOM    797  P     G A  35       0.291  -2.384  29.514  1.00  0.00     0.408 P 
ATOM    798  OP1   G A  35      -0.870  -3.241  29.867  1.00  0.00    -0.624 OA
ATOM    799  O5'   G A  35       1.540  -2.852  30.387  1.00  0.00    -0.287 OA
ATOM    800  OP2   G A  35       0.171  -0.906  29.624  1.00  0.00    -0.624 OA
ATOM    801  C5'   G A  35       2.185  -4.101  30.138  1.00  0.00     0.216 C 
ATOM    802  C4'   G A  35       3.340  -4.293  31.093  1.00  0.00     0.180 C 
ATOM    803  C3'   G A  35       3.162  -3.667  32.470  1.00  0.00     0.198 C 
ATOM    804  O4'   G A  35       4.520  -3.645  30.540  1.00  0.00    -0.353 OA
ATOM    805  O3'   G A  35       2.491  -4.548  33.365  1.00  0.00    -0.279 OA
ATOM    806  C2'   G A  35       4.598  -3.385  32.890  1.00  0.00     0.199 C 
ATOM    807  P     C A  36       1.191  -4.035  34.159  1.00  0.00     0.408 P 
ATOM    808  OP1   C A  36       0.790  -5.117  35.094  1.00  0.00    -0.624 OA
ATOM    809  O5'   C A  36       1.730  -2.808  35.021  1.00  0.00    -0.287 OA
ATOM    810  OP2   C A  36       0.209  -3.517  33.173  1.00  0.00    -0.624 OA
ATOM    811  C5'   C A  36       2.809  -2.974  35.940  1.00  0.00     0.216 C 
ATOM    812  C4'   C A  36       2.962  -1.738  36.793  1.00  0.00     0.180 C 
ATOM    813  C3'   C A  36       1.667  -1.030  37.162  1.00  0.00     0.198 C 
ATOM    814  O4'   C A  36       3.714  -0.740  36.051  1.00  0.00    -0.353 OA
ATOM    815  O3'   C A  36       1.051  -1.622  38.303  1.00  0.00    -0.279 OA
ATOM    816  C2'   C A  36       2.140   0.393  37.426  1.00  0.00     0.199 C 
ATOM    817  P     G A  37      -0.538  -1.490  38.513  1.00  0.00     0.408 P 
ATOM    818  O5'   G A  37      -0.740   0.018  38.991  1.00  0.00    -0.287 OA
ATOM    819  OP2   G A  37      -1.206  -1.652  37.196  1.00  0.00    -0.624 OA
ATOM    820  OP1   G A  37      -0.910  -2.384  39.638  1.00  0.00    -0.624 OA
ATOM    821  C5'   G A  37      -0.164   0.488  40.210  1.00  0.00     0.216 C 
ATOM    822  C4'   G A  37      -0.873   1.738  40.675  1.00  0.00     0.180 C 
ATOM    823  C3'   G A  37      -2.348   1.830  40.301  1.00  0.00     0.198 C 
ATOM    824  O4'   G A  37      -0.250   2.890  40.042  1.00  0.00    -0.353 OA
ATOM    825  O3'   G A  37      -3.178   1.231  41.291  1.00  0.00    -0.279 OA
ATOM    826  C2'   G A  37      -2.567   3.332  40.187  1.00  0.00     0.199 C 
ATOM    827  P     T A  38      -4.634   0.678  40.886  1.00  0.00     0.408 P 
ATOM    828  OP2   T A  38      -4.494  -0.177  39.679  1.00  0.00    -0.624 OA
ATOM    829  OP1   T A  38      -5.251   0.117  42.115  1.00  0.00    -0.624 OA
ATOM    830  O5'   T A  38      -5.443   1.988  40.477  1.00  0.00    -0.287 OA
ATOM    831  C5'   T A  38      -5.738   2.999  41.440  1.00  0.00     0.216 C 
ATOM    832  C4'   T A  38      -6.467   4.148  40.783  1.00  0.00     0.180 C 
ATOM    833  C3'   T A  38      -7.661   3.763  39.922  1.00  0.00     0.198 C 
ATOM    834  O4'   T A  38      -5.566   4.820  39.863  1.00  0.00    -0.353 OA
ATOM    835  O3'   T A  38      -8.839   3.587  40.703  1.00  0.00    -0.279 OA
ATOM    836  C2'   T A  38      -7.763   4.947  38.968  1.00  0.00     0.199 C 
ATOM    837  P     G A  39     -10.016   2.627  40.170  1.00  0.00     0.408 P 
ATOM    838  O5'   G A  39     -10.491   3.319  38.815  1.00  0.00    -0.287 OA
ATOM    839  OP2   G A  39      -9.428   1.304  39.839  1.00  0.00    -0.624 OA
ATOM    840  OP1   G A  39     -11.129   2.712  41.149  1.00  0.00    -0.624 OA
ATOM    841  C5'   G A  39     -11.046   4.634  38.819  1.00  0.00     0.216 C 
ATOM    842  C4'   G A  39     -11.334   5.085  37.407  1.00  0.00     0.180 C 
ATOM    843  O4'   G A  39     -10.086   5.336  36.711  1.00  0.00    -0.353 OA
ATOM    844  C3'   G A  39     -12.029   4.070  36.513  1.00  0.00     0.198 C 
ATOM    845  C1'   G A  39     -10.269   5.107  35.324  1.00  0.00     0.262 C 
ATOM    846  N9    G A  39      -9.242   4.173  34.867  1.00  0.00    -0.293 N 
ATOM    847  C2'   G A  39     -11.695   4.588  35.119  1.00  0.00     0.199 C 
ATOM    848  C4    G A  39      -8.817   3.999  33.572  1.00  0.00     0.187 A 
ATOM    849  C8    G A  39      -8.515   3.296  35.634  1.00  0.00     0.214 A 
ATOM    850  N3    G A  39      -9.273   4.666  32.491  1.00  0.00    -0.044 NA
ATOM    851  C5    G A  39      -7.851   3.017  33.633  1.00  0.00     0.173 A 
ATOM    852  C2    G A  39      -8.673   4.274  31.382  1.00  0.00     0.703 A 
ATOM    853  N1    G A  39      -7.703   3.307  31.333  1.00  0.00    -0.153 N 
ATOM    854  N2    G A  39      -9.007   4.834  30.217  1.00  0.00    -0.233 N 
ATOM    855  C6    G A  39      -7.216   2.608  32.431  1.00  0.00     0.292 A 
ATOM    856  H1    G A  39      -7.312   3.085  30.430  1.00  0.00     0.187 HD
ATOM    857  O6    G A  39      -6.337   1.752  32.273  1.00  0.00    -0.265 OA
ATOM    858  H22   G A  39      -8.561   4.538  29.359  1.00  0.00     0.174 HD
ATOM    859  H21   G A  39      -9.716   5.552  30.199  1.00  0.00     0.174 HD
ATOM    860  N7    G A  39      -7.670   2.583  34.940  1.00  0.00    -0.234 NA
ATOM    861  C1'   T A  38      -6.287   5.254  38.721  1.00  0.00     0.264 C 
ATOM    862  O2'   T A  38      -8.357   6.062  39.607  1.00  0.00    -0.388 OA
ATOM    863  N1    T A  38      -5.730   4.584  37.537  1.00  0.00    -0.280 N 
ATOM    864  C6    T A  38      -5.137   3.344  37.627  1.00  0.00     0.104 A 
ATOM    865  C2    T A  38      -5.822   5.241  36.323  1.00  0.00     0.331 A 
ATOM    866  C5    T A  38      -4.621   2.719  36.564  1.00  0.00     0.092 A 
ATOM    867  C4    T A  38      -4.677   3.334  35.275  1.00  0.00     0.250 A 
ATOM    868  N3    T A  38      -5.287   4.567  35.256  1.00  0.00    -0.275 N 
ATOM    869  O4    T A  38      -4.224   2.869  34.230  1.00  0.00    -0.268 OA
ATOM    870  H3    T A  38      -5.360   5.020  34.357  1.00  0.00     0.173 HD
ATOM    871  O2    T A  38      -6.336   6.339  36.200  1.00  0.00    -0.246 OA
ATOM    872 'HO2   T A  38      -8.714   5.743  40.437  1.00  0.00     0.210 HD
ATOM    873  O2'   G A  37      -2.678   3.933  41.465  1.00  0.00    -0.388 OA
ATOM    874  C1'   G A  37      -1.248   3.766  39.553  1.00  0.00     0.262 C 
ATOM    875 'HO2   G A  37      -2.857   3.226  42.086  1.00  0.00     0.210 HD
ATOM    876  N9    G A  37      -1.242   3.700  38.095  1.00  0.00    -0.293 N 
ATOM    877  C8    G A  37      -0.827   2.647  37.317  1.00  0.00     0.214 A 
ATOM    878  C4    G A  37      -1.648   4.684  37.226  1.00  0.00     0.187 A 
ATOM    879  N7    G A  37      -0.925   2.881  36.037  1.00  0.00    -0.234 NA
ATOM    880  C5    G A  37      -1.444   4.167  35.964  1.00  0.00     0.173 A 
ATOM    881  C6    G A  37      -1.771   4.966  34.838  1.00  0.00     0.292 A 
ATOM    882  O6    G A  37      -1.665   4.688  33.637  1.00  0.00    -0.265 OA
ATOM    883  N1    G A  37      -2.268   6.207  35.218  1.00  0.00    -0.153 N 
ATOM    884  C2    G A  37      -2.434   6.625  36.513  1.00  0.00     0.703 A 
ATOM    885  H1    G A  37      -2.526   6.846  34.483  1.00  0.00     0.187 HD
ATOM    886  N3    G A  37      -2.136   5.893  37.571  1.00  0.00    -0.044 NA
ATOM    887  N2    G A  37      -2.928   7.854  36.676  1.00  0.00    -0.233 N 
ATOM    888  H21   G A  37      -3.068   8.212  37.609  1.00  0.00     0.174 HD
ATOM    889  H22   G A  37      -3.158   8.423  35.873  1.00  0.00     0.174 HD
ATOM    890  O2'   C A  36       2.751   0.500  38.698  1.00  0.00    -0.388 OA
ATOM    891  C1'   C A  36       3.214   0.552  36.350  1.00  0.00     0.264 C 
ATOM    892 'HO2   C A  36       2.365  -0.187  39.243  1.00  0.00     0.210 HD
ATOM    893  N1    C A  36       2.714   1.163  35.106  1.00  0.00    -0.278 N 
ATOM    894  C6    C A  36       2.545   0.418  33.971  1.00  0.00     0.102 A 
ATOM    895  C2    C A  36       2.410   2.525  35.103  1.00  0.00     0.352 A 
ATOM    896  C5    C A  36       2.086   0.974  32.840  1.00  0.00     0.067 A 
ATOM    897  C4    C A  36       1.782   2.366  32.872  1.00  0.00     0.128 A 
ATOM    898  N4    C A  36       1.320   2.978  31.781  1.00  0.00    -0.384 N 
ATOM    899  N3    C A  36       1.942   3.099  33.973  1.00  0.00    -0.177 NA
ATOM    900  H41   C A  36       1.183   2.461  30.925  1.00  0.00     0.157 HD
ATOM    901  H42   C A  36       1.112   3.966  31.815  1.00  0.00     0.157 HD
ATOM    902  O2    C A  36       2.578   3.177  36.141  1.00  0.00    -0.244 OA
ATOM    903  C1'   G A  35       5.197  -2.932  31.560  1.00  0.00     0.262 C 
ATOM    904  O2'   G A  35       5.250  -4.568  33.312  1.00  0.00    -0.388 OA
ATOM    905  N9    G A  35       5.036  -1.503  31.309  1.00  0.00    -0.293 N 
ATOM    906  C4    G A  35       5.278  -0.485  32.199  1.00  0.00     0.187 A 
ATOM    907  C8    G A  35       4.610  -0.906  30.147  1.00  0.00     0.214 A 
ATOM    908  C5    G A  35       4.976   0.676  31.519  1.00  0.00     0.173 A 
ATOM    909  N3    G A  35       5.714  -0.628  33.467  1.00  0.00    -0.044 NA
ATOM    910  N7    G A  35       4.557   0.395  30.225  1.00  0.00    -0.234 NA
ATOM    911  C6    G A  35       5.127   1.919  32.189  1.00  0.00     0.292 A 
ATOM    912  N1    G A  35       5.579   1.745  33.492  1.00  0.00    -0.153 N 
ATOM    913  O6    G A  35       4.910   3.058  31.762  1.00  0.00    -0.265 OA
ATOM    914  C2    G A  35       5.850   0.535  34.077  1.00  0.00     0.703 A 
ATOM    915  H1    G A  35       5.718   2.575  34.045  1.00  0.00     0.187 HD
ATOM    916  N2    G A  35       6.274   0.574  35.342  1.00  0.00    -0.233 N 
ATOM    917  H21   G A  35       6.484  -0.294  35.814  1.00  0.00     0.174 HD
ATOM    918  H22   G A  35       6.381   1.452  35.824  1.00  0.00     0.174 HD
ATOM    919 'HO2   G A  35       4.562  -5.159  33.619  1.00  0.00     0.210 HD
ATOM    920  C1'   C A  33       2.442   3.191  23.608  1.00  0.00     0.264 C 
ATOM    921  O2'   C A  33       0.507   1.843  24.003  1.00  0.00    -0.388 OA
ATOM    922  N1    C A  33       3.903   3.106  23.768  1.00  0.00    -0.278 N 
ATOM    923  C2    C A  33       4.564   1.960  23.319  1.00  0.00     0.352 A 
ATOM    924  C6    C A  33       4.607   4.124  24.348  1.00  0.00     0.102 A 
ATOM    925  O2    C A  33       3.905   1.051  22.793  1.00  0.00    -0.244 OA
ATOM    926  N3    C A  33       5.904   1.868  23.464  1.00  0.00    -0.177 NA
ATOM    927  C4    C A  33       6.582   2.866  24.030  1.00  0.00     0.128 A 
ATOM    928  C5    C A  33       5.936   4.049  24.496  1.00  0.00     0.067 A 
ATOM    929 'HO2   C A  33      -0.248   2.251  24.426  1.00  0.00     0.210 HD
BRANCH 847 930
ATOM    930  O2'   G A  39     -12.527   5.677  34.770  1.00  0.00    -0.388 OA
ATOM    931 'HO2   G A  39     -12.321   6.384  35.381  1.00  0.00     0.210 HD
ENDBRANCH 847 930
BRANCH 844 932
ATOM    932  O3'   G A  39     -13.433   4.024  36.755  1.00  0.00    -0.279 OA
BRANCH 932 933
ATOM    933  P     G A  40     -14.139   5.203  37.590  1.00  0.00     0.408 P 
ATOM    934  OP2   G A  40     -15.510   5.400  37.056  1.00  0.00    -0.624 OA
ATOM    935  OP1   G A  40     -13.950   4.898  39.031  1.00  0.00    -0.624 OA
BRANCH 933 936
ATOM    936  O5'   G A  40     -13.274   6.496  37.239  1.00  0.00    -0.287 OA
BRANCH 936 937
ATOM    937  C5'   G A  40     -13.843   7.802  37.310  1.00  0.00     0.216 C 
BRANCH 937 938
ATOM    938  C4'   G A  40     -14.346   8.229  35.950  1.00  0.00     0.180 C 
ATOM    939  C3'   G A  40     -13.603   9.392  35.310  1.00  0.00     0.198 C 
ATOM    940  C2'   G A  40     -14.656   9.970  34.373  1.00  0.00     0.199 C 
ATOM    941  C1'   G A  40     -15.915   9.821  35.228  1.00  0.00     0.262 C 
ATOM    942  O2'   G A  40     -14.796   9.171  33.211  1.00  0.00    -0.388 OA
ATOM    943  N9    G A  40     -16.196  10.987  36.060  1.00  0.00    -0.293 N 
ATOM    944  O4'   G A  40     -15.717   8.703  36.077  1.00  0.00    -0.353 OA
ATOM    945  C8    G A  40     -15.796  11.194  37.358  1.00  0.00     0.214 A 
ATOM    946  C4    G A  40     -16.914  12.101  35.696  1.00  0.00     0.187 A 
ATOM    947  N7    G A  40     -16.195  12.338  37.844  1.00  0.00    -0.234 NA
ATOM    948  C5    G A  40     -16.903  12.923  36.803  1.00  0.00     0.173 A 
ATOM    949  C6    G A  40     -17.573  14.172  36.735  1.00  0.00     0.292 A 
ATOM    950  N1    G A  40     -18.159  14.369  35.490  1.00  0.00    -0.153 N 
ATOM    951  O6    G A  40     -17.680  15.041  37.607  1.00  0.00    -0.265 OA
ATOM    952  C2    G A  40     -18.109  13.482  34.446  1.00  0.00     0.703 A 
ATOM    953  H1    G A  40     -18.659  15.233  35.352  1.00  0.00     0.187 HD
ATOM    954  N2    G A  40     -18.730  13.857  33.325  1.00  0.00    -0.233 N 
ATOM    955  N3    G A  40     -17.493  12.315  34.495  1.00  0.00    -0.044 NA
ATOM    956  H21   G A  40     -18.717  13.240  32.528  1.00  0.00     0.174 HD
ATOM    957  H22   G A  40     -19.205  14.747  33.270  1.00  0.00     0.174 HD
ATOM    958 'HO2   G A  40     -13.940   8.771  33.054  1.00  0.00     0.210 HD
BRANCH 939 959
ATOM    959  O3'   G A  40     -12.436   8.958  34.617  1.00  0.00    -0.279 OA
BRANCH 959 960
ATOM    960  P     A A  41     -11.012   9.625  34.959  1.00  0.00     0.408 P 
ATOM    961  OP2   A A  41     -10.296   8.740  35.913  1.00  0.00    -0.624 OA
ATOM    962  OP1   A A  41     -10.373   9.979  33.666  1.00  0.00    -0.624 OA
BRANCH 960 963
ATOM    963  O5'   A A  41     -11.393  10.977  35.712  1.00  0.00    -0.287 OA
BRANCH 963 964
ATOM    964  C5'   A A  41     -11.890  10.960  37.050  1.00  0.00     0.216 C 
BRANCH 964 965
ATOM    965  C4'   A A  41     -10.993  11.779  37.950  1.00  0.00     0.180 C 
ATOM    966  O4'   A A  41     -11.785  12.839  38.554  1.00  0.00    -0.353 OA
ATOM    967  C1'   A A  41     -11.428  12.987  39.917  1.00  0.00     0.262 C 
ATOM    968  C2'   A A  41     -10.201  12.114  40.173  1.00  0.00     0.199 C 
ATOM    969  N9    A A  41     -12.589  12.635  40.734  1.00  0.00    -0.294 N 
ATOM    970  O2'   A A  41      -9.039  12.881  39.918  1.00  0.00    -0.388 OA
ATOM    971  C3'   A A  41     -10.381  11.023  39.123  1.00  0.00     0.198 C 
ATOM    972 'HO2   A A  41      -8.388  12.278  39.558  1.00  0.00     0.210 HD
ATOM    973  O3'   A A  41      -9.142  10.416  38.759  1.00  0.00    -0.279 OA
ATOM    974  P     A A  42      -8.780   8.945  39.299  1.00  0.00     0.408 P 
ATOM    975  OP1   A A  42      -7.483   8.557  38.688  1.00  0.00    -0.624 OA
ATOM    976  O5'   A A  42      -8.545   9.151  40.863  1.00  0.00    -0.287 OA
ATOM    977  OP2   A A  42      -9.965   8.072  39.117  1.00  0.00    -0.624 OA
ATOM    978  C5'   A A  42      -7.362   9.784  41.352  1.00  0.00     0.216 C 
ATOM    979  C4'   A A  42      -7.590  10.314  42.750  1.00  0.00     0.180 C 
ATOM    980  C3'   A A  42      -7.829   9.256  43.822  1.00  0.00     0.198 C 
ATOM    981  O4'   A A  42      -8.794  11.130  42.753  1.00  0.00    -0.353 OA
ATOM    982  O3'   A A  42      -6.602   8.798  44.387  1.00  0.00    -0.279 OA
ATOM    983  C2'   A A  42      -8.690  10.001  44.835  1.00  0.00     0.199 C 
ATOM    984  P     T A  43      -6.540   7.359  45.105  1.00  0.00     0.408 P 
ATOM    985  OP1   T A  43      -5.159   7.183  45.624  1.00  0.00    -0.624 OA
ATOM    986  O5'   T A  43      -7.526   7.501  46.349  1.00  0.00    -0.287 OA
ATOM    987  OP2   T A  43      -7.109   6.349  44.178  1.00  0.00    -0.624 OA
ATOM    988  C5'   T A  43      -7.249   8.417  47.408  1.00  0.00     0.216 C 
ATOM    989  C4'   T A  43      -8.387   8.426  48.403  1.00  0.00     0.180 C 
ATOM    990  C3'   T A  43      -8.794   7.061  48.940  1.00  0.00     0.198 C 
ATOM    991  O4'   T A  43      -9.578   8.940  47.748  1.00  0.00    -0.353 OA
ATOM    992  O3'   T A  43      -8.015   6.700  50.078  1.00  0.00    -0.279 OA
ATOM    993  C2'   T A  43     -10.267   7.259  49.282  1.00  0.00     0.199 C 
ATOM    994  P     C A  44      -7.613   5.161  50.318  1.00  0.00     0.408 P 
ATOM    995  OP2   C A  44      -7.160   4.591  49.023  1.00  0.00    -0.624 OA
ATOM    996  OP1   C A  44      -6.705   5.126  51.492  1.00  0.00    -0.624 OA
ATOM    997  O5'   C A  44      -8.986   4.465  50.734  1.00  0.00    -0.287 OA
ATOM    998  C5'   C A  44      -9.377   3.209  50.179  1.00  0.00     0.216 C 
ATOM    999  C4'   C A  44     -10.740   3.325  49.538  1.00  0.00     0.180 C 
ATOM   1000  C3'   C A  44     -11.291   2.034  48.951  1.00  0.00     0.198 C 
ATOM   1001  O4'   C A  44     -10.654   4.239  48.409  1.00  0.00    -0.353 OA
ATOM   1002  O3'   C A  44     -11.987   1.271  49.932  1.00  0.00    -0.279 OA
ATOM   1003  C2'   C A  44     -12.208   2.540  47.846  1.00  0.00     0.199 C 
ATOM   1004  P     A A  45     -12.027  -0.334  49.822  1.00  0.00     0.408 P 
ATOM   1005  OP1   A A  45     -12.533  -0.851  51.119  1.00  0.00    -0.624 OA
ATOM   1006  OP2   A A  45     -10.721  -0.811  49.300  1.00  0.00    -0.624 OA
ATOM   1007  O5'   A A  45     -13.137  -0.616  48.714  1.00  0.00    -0.287 OA
ATOM   1008  C5'   A A  45     -14.490  -0.206  48.908  1.00  0.00     0.216 C 
ATOM   1009  C4'   A A  45     -15.376  -0.796  47.836  1.00  0.00     0.180 C 
ATOM   1010  O4'   A A  45     -15.256   0.014  46.631  1.00  0.00    -0.353 OA
ATOM   1011  C3'   A A  45     -15.020  -2.211  47.394  1.00  0.00     0.198 C 
ATOM   1012  C1'   A A  45     -15.125  -0.827  45.500  1.00  0.00     0.262 C 
ATOM   1013  N9    A A  45     -13.754  -0.717  45.002  1.00  0.00    -0.294 N 
ATOM   1014  C2'   A A  45     -15.506  -2.234  45.951  1.00  0.00     0.199 C 
ATOM   1015  C4    A A  45     -13.335  -0.912  43.708  1.00  0.00     0.167 A 
ATOM   1016  C8    A A  45     -12.626  -0.398  45.717  1.00  0.00     0.214 A 
ATOM   1017  C5    A A  45     -11.970  -0.695  43.717  1.00  0.00     0.149 A 
ATOM   1018  N3    A A  45     -14.090  -1.245  42.646  1.00  0.00    -0.222 NA
ATOM   1019  C6    A A  45     -11.294  -0.832  42.491  1.00  0.00     0.155 A 
ATOM   1020  N7    A A  45     -11.532  -0.371  44.994  1.00  0.00    -0.236 NA
ATOM   1021  N6    A A  45      -9.982  -0.648  42.346  1.00  0.00    -0.382 N 
ATOM   1022  N1    A A  45     -12.022  -1.166  41.405  1.00  0.00    -0.222 NA
ATOM   1023  H62   A A  45      -9.554  -0.746  41.434  1.00  0.00     0.157 HD
ATOM   1024  H61   A A  45      -9.417  -0.396  43.144  1.00  0.00     0.157 HD
ATOM   1025  C2    A A  45     -13.341  -1.345  41.549  1.00  0.00     0.237 A 
ATOM   1026  O2'   A A  45     -16.914  -2.367  45.888  1.00  0.00    -0.388 OA
ATOM   1027 'HO2   A A  45     -17.198  -2.716  46.733  1.00  0.00     0.210 HD
ATOM   1028  O3'   A A  45     -15.664  -3.193  48.202  1.00  0.00    -0.279 OA
ATOM   1029  P     C A  46     -14.982  -4.637  48.398  1.00  0.00     0.408 P 
ATOM   1030  OP2   C A  46     -13.532  -4.443  48.653  1.00  0.00    -0.624 OA
ATOM   1031  O5'   C A  46     -15.144  -5.337  46.976  1.00  0.00    -0.287 OA
ATOM   1032  OP1   C A  46     -15.805  -5.388  49.380  1.00  0.00    -0.624 OA
ATOM   1033  C5'   C A  46     -16.435  -5.607  46.432  1.00  0.00     0.216 C 
ATOM   1034  C4'   C A  46     -16.320  -5.970  44.970  1.00  0.00     0.180 C 
ATOM   1035  O4'   C A  46     -15.731  -4.854  44.249  1.00  0.00    -0.353 OA
ATOM   1036  C3'   C A  46     -15.405  -7.148  44.660  1.00  0.00     0.198 C 
ATOM   1037  C1'   C A  46     -14.843  -5.338  43.258  1.00  0.00     0.264 C 
ATOM   1038  C2'   C A  46     -14.973  -6.861  43.228  1.00  0.00     0.199 C 
ATOM   1039  N1    C A  46     -13.486  -4.860  43.579  1.00  0.00    -0.278 N 
ATOM   1040  O2'   C A  46     -15.990  -7.209  42.307  1.00  0.00    -0.388 OA
ATOM   1041 'HO2   C A  46     -16.603  -7.777  42.776  1.00  0.00     0.210 HD
ATOM   1042  C2    C A  46     -12.561  -4.710  42.543  1.00  0.00     0.352 A 
ATOM   1043  C6    C A  46     -13.134  -4.564  44.867  1.00  0.00     0.102 A 
ATOM   1044  N3    C A  46     -11.316  -4.267  42.827  1.00  0.00    -0.177 NA
ATOM   1045  O2    C A  46     -12.903  -4.987  41.385  1.00  0.00    -0.244 OA
ATOM   1046  C4    C A  46     -10.984  -3.974  44.086  1.00  0.00     0.128 A 
ATOM   1047  N4    C A  46      -9.747  -3.537  44.318  1.00  0.00    -0.384 N 
ATOM   1048  C5    C A  46     -11.907  -4.117  45.163  1.00  0.00     0.067 A 
ATOM   1049  H42   C A  46      -9.099  -3.446  43.549  1.00  0.00     0.157 HD
ATOM   1050  H41   C A  46      -9.457  -3.305  45.256  1.00  0.00     0.157 HD
ATOM   1051  O3'   C A  46     -16.094  -8.390  44.783  1.00  0.00    -0.279 OA
ATOM   1052  P     G A  47     -15.262  -9.745  45.025  1.00  0.00     0.408 P 
ATOM   1053  OP1   G A  47     -16.226 -10.871  44.945  1.00  0.00    -0.624 OA
ATOM   1054  O5'   G A  47     -14.289  -9.831  43.766  1.00  0.00    -0.287 OA
ATOM   1055  OP2   G A  47     -14.433  -9.574  46.245  1.00  0.00    -0.624 OA
ATOM   1056  C5'   G A  47     -14.795 -10.107  42.460  1.00  0.00     0.216 C 
ATOM   1057  C4'   G A  47     -13.653 -10.355  41.501  1.00  0.00     0.180 C 
ATOM   1058  C3'   G A  47     -12.509 -11.202  42.043  1.00  0.00     0.198 C 
ATOM   1059  O4'   G A  47     -13.032  -9.086  41.176  1.00  0.00    -0.353 OA
ATOM   1060  C2'   G A  47     -11.327 -10.755  41.189  1.00  0.00     0.199 C 
ATOM   1061  O3'   G A  47     -12.777 -12.596  41.902  1.00  0.00    -0.279 OA
ATOM   1062  C1'   G A  47     -11.643  -9.274  40.973  1.00  0.00     0.262 C 
ATOM   1063  O2'   G A  47     -11.332 -11.406  39.932  1.00  0.00    -0.388 OA
ATOM   1064  N9    G A  47     -10.922  -8.381  41.875  1.00  0.00    -0.293 N 
ATOM   1065  C8    G A  47     -11.332  -7.932  43.106  1.00  0.00     0.214 A 
ATOM   1066  C4    G A  47      -9.688  -7.822  41.650  1.00  0.00     0.187 A 
ATOM   1067  N7    G A  47     -10.471  -7.133  43.676  1.00  0.00    -0.234 NA
ATOM   1068  C5    G A  47      -9.424  -7.055  42.765  1.00  0.00     0.173 A 
ATOM   1069  C6    G A  47      -8.198  -6.338  42.827  1.00  0.00     0.292 A 
ATOM   1070  O6    G A  47      -7.777  -5.604  43.729  1.00  0.00    -0.265 OA
ATOM   1071  N1    G A  47      -7.429  -6.544  41.687  1.00  0.00    -0.153 N 
ATOM   1072  C2    G A  47      -7.790  -7.335  40.625  1.00  0.00     0.703 A 
ATOM   1073  H1    G A  47      -6.539  -6.070  41.642  1.00  0.00     0.187 HD
ATOM   1074  N2    G A  47      -6.919  -7.409  39.618  1.00  0.00    -0.233 N 
ATOM   1075  N3    G A  47      -8.924  -8.007  40.555  1.00  0.00    -0.044 NA
ATOM   1076  H21   G A  47      -7.141  -7.980  38.816  1.00  0.00     0.174 HD
ATOM   1077  H22   G A  47      -6.046  -6.901  39.653  1.00  0.00     0.174 HD
ATOM   1078 'HO2   G A  47     -11.775 -12.245  40.064  1.00  0.00     0.210 HD
ATOM   1079  C1'   C A  44     -11.401   3.726  47.319  1.00  0.00     0.264 C 
ATOM   1080  O2'   C A  44     -13.428   3.020  48.378  1.00  0.00    -0.388 OA
ATOM   1081  N1    C A  44     -10.465   3.378  46.235  1.00  0.00    -0.278 N 
ATOM   1082  C6    C A  44      -9.115   3.391  46.445  1.00  0.00     0.102 A 
ATOM   1083  C2    C A  44     -10.980   3.035  44.981  1.00  0.00     0.352 A 
ATOM   1084  C5    C A  44      -8.259   3.078  45.465  1.00  0.00     0.067 A 
ATOM   1085  C4    C A  44      -8.811   2.734  44.197  1.00  0.00     0.128 A 
ATOM   1086  N4    C A  44      -8.010   2.412  43.182  1.00  0.00    -0.384 N 
ATOM   1087  N3    C A  44     -10.127   2.719  43.981  1.00  0.00    -0.177 NA
ATOM   1088  H41   C A  44      -7.008   2.411  43.308  1.00  0.00     0.157 HD
ATOM   1089  H42   C A  44      -8.406   2.166  42.285  1.00  0.00     0.157 HD
ATOM   1090  O2    C A  44     -12.208   3.027  44.816  1.00  0.00    -0.244 OA
ATOM   1091 'HO2   C A  44     -13.550   2.586  49.223  1.00  0.00     0.210 HD
ATOM   1092  C1'   T A  43     -10.712   8.198  48.159  1.00  0.00     0.264 C 
ATOM   1093  O2'   T A  43     -10.416   7.931  50.519  1.00  0.00    -0.388 OA
ATOM   1094  N1    T A  43     -11.258   7.502  46.985  1.00  0.00    -0.280 N 
ATOM   1095  C2    T A  43     -12.632   7.439  46.852  1.00  0.00     0.331 A 
ATOM   1096  C6    T A  43     -10.429   6.934  46.046  1.00  0.00     0.104 A 
ATOM   1097  N3    T A  43     -13.078   6.781  45.736  1.00  0.00    -0.275 N 
ATOM   1098  O2    T A  43     -13.400   7.929  47.661  1.00  0.00    -0.246 OA
ATOM   1099  H3    T A  43     -14.077   6.716  45.620  1.00  0.00     0.173 HD
ATOM   1100  C4    T A  43     -12.308   6.192  44.759  1.00  0.00     0.250 A 
ATOM   1101  O4    T A  43     -12.856   5.640  43.807  1.00  0.00    -0.268 OA
ATOM   1102  C5    T A  43     -10.899   6.298  44.969  1.00  0.00     0.092 A 
ATOM   1103 'HO2   T A  43      -9.542   7.995  50.905  1.00  0.00     0.210 HD
ATOM   1104  C1'   A A  42      -9.562  10.849  43.911  1.00  0.00     0.262 C 
ATOM   1105  O2'   A A  42      -7.907  10.865  45.637  1.00  0.00    -0.388 OA
ATOM   1106  N9    A A  42     -10.797  10.187  43.493  1.00  0.00    -0.294 N 
ATOM   1107  C8    A A  42     -11.031   9.517  42.318  1.00  0.00     0.214 A 
ATOM   1108  C4    A A  42     -11.967  10.111  44.208  1.00  0.00     0.167 A 
ATOM   1109  N7    A A  42     -12.240   9.025  42.223  1.00  0.00    -0.236 NA
ATOM   1110  C5    A A  42     -12.846   9.394  43.416  1.00  0.00     0.149 A 
ATOM   1111  C6    A A  42     -14.135   9.177  43.928  1.00  0.00     0.155 A 
ATOM   1112  N6    A A  42     -15.086   8.508  43.277  1.00  0.00    -0.382 N 
ATOM   1113  N1    A A  42     -14.418   9.677  45.150  1.00  0.00    -0.222 NA
ATOM   1114  H61   A A  42     -14.886   8.129  42.360  1.00  0.00     0.157 HD
ATOM   1115  H62   A A  42     -15.996   8.382  43.694  1.00  0.00     0.157 HD
ATOM   1116  C2    A A  42     -13.462  10.351  45.803  1.00  0.00     0.237 A 
ATOM   1117  N3    A A  42     -12.215  10.623  45.425  1.00  0.00    -0.222 NA
ATOM   1118 'HO2   A A  42      -6.991  10.636  45.480  1.00  0.00     0.210 HD
ATOM   1119  C4    A A  41     -12.778  12.952  42.058  1.00  0.00     0.167 A 
ATOM   1120  C8    A A  41     -13.707  11.935  40.353  1.00  0.00     0.214 A 
ATOM   1121  N3    A A  41     -11.944  13.634  42.861  1.00  0.00    -0.222 NA
ATOM   1122  C5    A A  41     -14.011  12.424  42.398  1.00  0.00     0.149 A 
ATOM   1123  C2    A A  41     -12.461  13.752  44.082  1.00  0.00     0.237 A 
ATOM   1124  N1    A A  41     -13.629  13.301  44.555  1.00  0.00    -0.222 NA
ATOM   1125  C6    A A  41     -14.444  12.620  43.722  1.00  0.00     0.155 A 
ATOM   1126  N6    A A  41     -15.608  12.173  44.194  1.00  0.00    -0.382 N 
ATOM   1127  H61   A A  41     -16.233  11.662  43.588  1.00  0.00     0.157 HD
ATOM   1128  H62   A A  41     -15.859  12.347  45.156  1.00  0.00     0.157 HD
ATOM   1129  N7    A A  41     -14.588  11.783  41.311  1.00  0.00    -0.236 NA
BRANCH 1061 1130
ATOM   1130  P     T A  48     -12.576 -13.586  43.156  1.00  0.00     0.408 P 
ATOM   1131  OP1   T A  48     -11.676 -14.673  42.698  1.00  0.00    -0.624 OA
ATOM   1132  OP2   T A  48     -13.900 -13.928  43.737  1.00  0.00    -0.624 OA
BRANCH 1130 1133
ATOM   1133  O5'   T A  48     -11.770 -12.709  44.217  1.00  0.00    -0.287 OA
BRANCH 1133 1134
ATOM   1134  C5'   T A  48     -10.354 -12.831  44.357  1.00  0.00     0.216 C 
BRANCH 1134 1135
ATOM   1135  C4'   T A  48      -9.755 -11.499  44.742  1.00  0.00     0.180 C 
ATOM   1136  O4'   T A  48     -10.827 -10.615  45.168  1.00  0.00    -0.353 OA
ATOM   1137  C1'   T A  48     -10.403  -9.846  46.279  1.00  0.00     0.264 C 
ATOM   1138  N1    T A  48     -11.231 -10.212  47.438  1.00  0.00    -0.280 N 
ATOM   1139  C2'   T A  48      -8.910 -10.114  46.477  1.00  0.00     0.199 C 
ATOM   1140  C2    T A  48     -11.375  -9.277  48.448  1.00  0.00     0.331 A 
ATOM   1141  C6    T A  48     -11.843 -11.443  47.522  1.00  0.00     0.104 A 
ATOM   1142  O2    T A  48     -10.856  -8.177  48.411  1.00  0.00    -0.246 OA
ATOM   1143  N3    T A  48     -12.151  -9.679  49.504  1.00  0.00    -0.275 N 
ATOM   1144  H3    T A  48     -12.273  -9.012  50.250  1.00  0.00     0.173 HD
ATOM   1145  C4    T A  48     -12.785 -10.891  49.654  1.00  0.00     0.250 A 
ATOM   1146  O4    T A  48     -13.433 -11.110  50.676  1.00  0.00    -0.268 OA
ATOM   1147  C5    T A  48     -12.593 -11.800  48.568  1.00  0.00     0.092 A 
ATOM   1148  O2'   T A  48      -8.176  -9.189  45.696  1.00  0.00    -0.388 OA
ATOM   1149  C3'   T A  48      -8.786 -11.526  45.919  1.00  0.00     0.198 C 
ATOM   1150 'HO2   T A  48      -7.281  -9.525  45.643  1.00  0.00     0.210 HD
BRANCH 1149 1151
ATOM   1151  O3'   T A  48      -7.456 -11.827  45.501  1.00  0.00    -0.279 OA
BRANCH 1151 1152
ATOM   1152  P     C A  49      -6.825 -11.076  44.224  1.00  0.00     0.408 P 
ATOM   1153  OP1   C A  49      -5.817 -10.109  44.728  1.00  0.00    -0.624 OA
ATOM   1154  OP2   C A  49      -7.930 -10.597  43.354  1.00  0.00    -0.624 OA
BRANCH 1152 1155
ATOM   1155  O5'   C A  49      -6.048 -12.227  43.440  1.00  0.00    -0.287 OA
BRANCH 1155 1156
ATOM   1156  C5'   C A  49      -4.625 -12.216  43.331  1.00  0.00     0.216 C 
BRANCH 1156 1157
ATOM   1157  C4'   C A  49      -4.203 -12.741  41.977  1.00  0.00     0.180 C 
ATOM   1158  C3'   C A  49      -4.599 -11.883  40.782  1.00  0.00     0.198 C 
ATOM   1159  C2'   C A  49      -4.647 -12.908  39.655  1.00  0.00     0.199 C 
ATOM   1160  O2'   C A  49      -3.348 -13.249  39.211  1.00  0.00    -0.388 OA
ATOM   1161  C1'   C A  49      -5.249 -14.109  40.383  1.00  0.00     0.264 C 
ATOM   1162 'HO2   C A  49      -2.859 -12.427  39.131  1.00  0.00     0.210 HD
ATOM   1163  N1    C A  49      -6.719 -14.159  40.311  1.00  0.00    -0.278 N 
ATOM   1164  O4'   C A  49      -4.866 -14.014  41.744  1.00  0.00    -0.353 OA
ATOM   1165  C2    C A  49      -7.313 -14.978  39.351  1.00  0.00     0.352 A 
ATOM   1166  C6    C A  49      -7.494 -13.412  41.154  1.00  0.00     0.102 A 
ATOM   1167  O2    C A  49      -6.586 -15.652  38.612  1.00  0.00    -0.244 OA
ATOM   1168  N3    C A  49      -8.661 -15.015  39.254  1.00  0.00    -0.177 NA
ATOM   1169  C4    C A  49      -9.408 -14.276  40.075  1.00  0.00     0.128 A 
ATOM   1170  C5    C A  49      -8.831 -13.438  41.071  1.00  0.00     0.067 A 
ATOM   1171  N4    C A  49     -10.733 -14.339  39.935  1.00  0.00    -0.384 N 
ATOM   1172  H42   C A  49     -11.136 -14.931  39.222  1.00  0.00     0.157 HD
ATOM   1173  H41   C A  49     -11.338 -13.795  40.534  1.00  0.00     0.157 HD
BRANCH 1158 1174
ATOM   1174  O3'   C A  49      -3.656 -10.843  40.532  1.00  0.00    -0.279 OA
ATOM   1175  P     G A  50      -4.004  -9.327  40.951  1.00  0.00     0.408 P 
ATOM   1176  O5'   G A  50      -4.127  -8.554  39.561  1.00  0.00    -0.287 OA
ATOM   1177  OP1   G A  50      -2.823  -8.792  41.675  1.00  0.00    -0.624 OA
ATOM   1178  OP2   G A  50      -5.336  -9.306  41.608  1.00  0.00    -0.624 OA
ATOM   1179  C5'   G A  50      -2.972  -8.239  38.784  1.00  0.00     0.216 C 
ATOM   1180  C4'   G A  50      -3.145  -8.733  37.365  1.00  0.00     0.180 C 
ATOM   1181  C3'   G A  50      -3.961  -7.832  36.447  1.00  0.00     0.198 C 
ATOM   1182  O4'   G A  50      -3.885  -9.984  37.386  1.00  0.00    -0.353 OA
ATOM   1183  C2'   G A  50      -4.471  -8.814  35.398  1.00  0.00     0.199 C 
ATOM   1184  O3'   G A  50      -3.163  -6.798  35.875  1.00  0.00    -0.279 OA
ATOM   1185  C1'   G A  50      -4.731 -10.055  36.251  1.00  0.00     0.262 C 
ATOM   1186  O2'   G A  50      -3.464  -9.115  34.449  1.00  0.00    -0.388 OA
ATOM   1187  N9    G A  50      -6.114 -10.160  36.707  1.00  0.00    -0.293 N 
ATOM   1188  C4    G A  50      -7.231 -10.199  35.908  1.00  0.00     0.187 A 
ATOM   1189  C8    G A  50      -6.562 -10.236  38.002  1.00  0.00     0.214 A 
ATOM   1190  N3    G A  50      -7.242 -10.151  34.560  1.00  0.00    -0.044 NA
ATOM   1191  C5    G A  50      -8.298 -10.295  36.776  1.00  0.00     0.173 A 
ATOM   1192  C2    G A  50      -8.469 -10.203  34.077  1.00  0.00     0.703 A 
ATOM   1193  N2    G A  50      -8.665 -10.154  32.756  1.00  0.00    -0.233 N 
ATOM   1194  N1    G A  50      -9.595 -10.304  34.851  1.00  0.00    -0.153 N 
ATOM   1195  H21   G A  50      -7.869 -10.075  32.140  1.00  0.00     0.174 HD
ATOM   1196  H22   G A  50      -9.601 -10.182  32.380  1.00  0.00     0.174 HD
ATOM   1197  H1    G A  50     -10.481 -10.343  34.373  1.00  0.00     0.187 HD
ATOM   1198  C6    G A  50      -9.610 -10.356  36.239  1.00  0.00     0.292 A 
ATOM   1199  O6    G A  50     -10.689 -10.445  36.840  1.00  0.00    -0.265 OA
ATOM   1200  N7    G A  50      -7.861 -10.318  38.094  1.00  0.00    -0.234 NA
ATOM   1201 'HO2   G A  50      -2.918  -8.331  34.371  1.00  0.00     0.210 HD
ATOM   1202  P     G A  51      -3.819  -5.363  35.553  1.00  0.00     0.408 P 
ATOM   1203  O5'   G A  51      -5.003  -5.691  34.536  1.00  0.00    -0.287 OA
ATOM   1204  OP2   G A  51      -4.411  -4.827  36.807  1.00  0.00    -0.624 OA
ATOM   1205  OP1   G A  51      -2.795  -4.567  34.829  1.00  0.00    -0.624 OA
ATOM   1206  C5'   G A  51      -4.743  -6.349  33.296  1.00  0.00     0.216 C 
ATOM   1207  C4'   G A  51      -5.902  -6.156  32.343  1.00  0.00     0.180 C 
ATOM   1208  O4'   G A  51      -6.837  -7.260  32.478  1.00  0.00    -0.353 OA
ATOM   1209  C3'   G A  51      -6.784  -4.941  32.580  1.00  0.00     0.198 C 
ATOM   1210  C1'   G A  51      -8.145  -6.808  32.157  1.00  0.00     0.262 C 
ATOM   1211  N9    G A  51      -9.024  -7.067  33.294  1.00  0.00    -0.293 N 
ATOM   1212  C2'   G A  51      -8.040  -5.323  31.809  1.00  0.00     0.199 C 
ATOM   1213  C4    G A  51     -10.394  -7.169  33.255  1.00  0.00     0.187 A 
ATOM   1214  C8    G A  51      -8.659  -7.249  34.605  1.00  0.00     0.214 A 
ATOM   1215  N3    G A  51     -11.166  -7.052  32.155  1.00  0.00    -0.044 NA
ATOM   1216  C5    G A  51     -10.780  -7.406  34.557  1.00  0.00     0.173 A 
ATOM   1217  C2    G A  51     -12.448  -7.195  32.435  1.00  0.00     0.703 A 
ATOM   1218  N2    G A  51     -13.354  -7.105  31.459  1.00  0.00    -0.233 N 
ATOM   1219  N1    G A  51     -12.938  -7.436  33.694  1.00  0.00    -0.153 N 
ATOM   1220  H22   G A  51     -14.338  -7.207  31.659  1.00  0.00     0.174 HD
ATOM   1221  H21   G A  51     -13.042  -6.928  30.514  1.00  0.00     0.174 HD
ATOM   1222  C6    G A  51     -12.163  -7.560  34.841  1.00  0.00     0.292 A 
ATOM   1223  H1    G A  51     -13.937  -7.529  33.798  1.00  0.00     0.187 HD
ATOM   1224  O6    G A  51     -12.707  -7.778  35.929  1.00  0.00    -0.265 OA
ATOM   1225  N7    G A  51      -9.675  -7.455  35.398  1.00  0.00    -0.234 NA
ATOM   1226  O2'   G A  51      -7.844  -5.197  30.413  1.00  0.00    -0.388 OA
ATOM   1227 'HO2   G A  51      -7.257  -4.452  30.284  1.00  0.00     0.210 HD
ATOM   1228  O3'   G A  51      -6.197  -3.735  32.103  1.00  0.00    -0.279 OA
ATOM   1229  P     G A  52      -6.716  -2.320  32.665  1.00  0.00     0.408 P 
ATOM   1230  O5'   G A  52      -8.244  -2.262  32.215  1.00  0.00    -0.287 OA
ATOM   1231  OP2   G A  52      -6.666  -2.359  34.148  1.00  0.00    -0.624 OA
ATOM   1232  OP1   G A  52      -5.978  -1.257  31.934  1.00  0.00    -0.624 OA
ATOM   1233  C5'   G A  52      -8.600  -2.001  30.859  1.00  0.00     0.216 C 
ATOM   1234  C4'   G A  52     -10.087  -2.184  30.656  1.00  0.00     0.180 C 
ATOM   1235  O4'   G A  52     -10.513  -3.454  31.215  1.00  0.00    -0.353 OA
ATOM   1236  C3'   G A  52     -10.990  -1.188  31.365  1.00  0.00     0.198 C 
ATOM   1237  C1'   G A  52     -11.877  -3.364  31.594  1.00  0.00     0.262 C 
ATOM   1238  C2'   G A  52     -12.327  -1.919  31.361  1.00  0.00     0.199 C 
ATOM   1239  N9    G A  52     -12.007  -3.789  32.984  1.00  0.00    -0.293 N 
ATOM   1240  O2'   G A  52     -12.950  -1.841  30.092  1.00  0.00    -0.388 OA
ATOM   1241 'HO2   G A  52     -12.493  -1.156  29.603  1.00  0.00     0.210 HD
ATOM   1242  C8    G A  52     -10.996  -3.991  33.892  1.00  0.00     0.214 A 
ATOM   1243  C4    G A  52     -13.180  -4.063  33.646  1.00  0.00     0.187 A 
ATOM   1244  N7    G A  52     -11.425  -4.364  35.066  1.00  0.00    -0.234 NA
ATOM   1245  C5    G A  52     -12.807  -4.412  34.926  1.00  0.00     0.173 A 
ATOM   1246  C6    G A  52     -13.817  -4.753  35.865  1.00  0.00     0.292 A 
ATOM   1247  O6    G A  52     -13.691  -5.093  37.047  1.00  0.00    -0.265 OA
ATOM   1248  N1    G A  52     -15.086  -4.670  35.302  1.00  0.00    -0.153 N 
ATOM   1249  C2    G A  52     -15.350  -4.309  34.007  1.00  0.00     0.703 A 
ATOM   1250  H1    G A  52     -15.869  -4.893  35.896  1.00  0.00     0.187 HD
ATOM   1251  N2    G A  52     -16.638  -4.285  33.654  1.00  0.00    -0.233 N 
ATOM   1252  N3    G A  52     -14.422  -3.991  33.122  1.00  0.00    -0.044 NA
ATOM   1253  H21   G A  52     -16.888  -4.025  32.711  1.00  0.00     0.174 HD
ATOM   1254  H22   G A  52     -17.357  -4.522  34.324  1.00  0.00     0.174 HD
ATOM   1255  O3'   G A  52     -11.050   0.063  30.686  1.00  0.00    -0.279 OA
ATOM   1256  P     G A  53     -11.501   1.386  31.485  1.00  0.00     0.408 P 
ATOM   1257  OP2   G A  53     -10.752   1.444  32.764  1.00  0.00    -0.624 OA
ATOM   1258  OP1   G A  53     -11.418   2.524  30.533  1.00  0.00    -0.624 OA
ATOM   1259  O5'   G A  53     -13.039   1.131  31.817  1.00  0.00    -0.287 OA
ATOM   1260  C5'   G A  53     -13.998   0.973  30.772  1.00  0.00     0.216 C 
ATOM   1261  C4'   G A  53     -15.364   0.684  31.352  1.00  0.00     0.180 C 
ATOM   1262  C3'   G A  53     -15.860   1.655  32.410  1.00  0.00     0.198 C 
ATOM   1263  O4'   G A  53     -15.337  -0.585  32.057  1.00  0.00    -0.353 OA
ATOM   1264  O3'   G A  53     -16.378   2.851  31.834  1.00  0.00    -0.279 OA
ATOM   1265  C2'   G A  53     -16.933   0.831  33.113  1.00  0.00     0.199 C 
ATOM   1266  P     T A  54     -16.483   4.186  32.726  1.00  0.00     0.408 P 
ATOM   1267  OP2   T A  54     -15.193   4.385  33.434  1.00  0.00    -0.624 OA
ATOM   1268  O5'   T A  54     -17.598   3.840  33.811  1.00  0.00    -0.287 OA
ATOM   1269  OP1   T A  54     -17.012   5.262  31.849  1.00  0.00    -0.624 OA
ATOM   1270  C5'   T A  54     -18.945   3.582  33.422  1.00  0.00     0.216 C 
ATOM   1271  C4'   T A  54     -19.787   3.256  34.632  1.00  0.00     0.180 C 
ATOM   1272  O4'   T A  54     -19.298   2.033  35.244  1.00  0.00    -0.353 OA
ATOM   1273  C3'   T A  54     -19.738   4.267  35.767  1.00  0.00     0.198 C 
ATOM   1274  C1'   T A  54     -19.512   2.087  36.644  1.00  0.00     0.264 C 
ATOM   1275  N1    T A  54     -18.222   1.891  37.322  1.00  0.00    -0.280 N 
ATOM   1276  C2'   T A  54     -20.173   3.429  36.963  1.00  0.00     0.199 C 
ATOM   1277  C6    T A  54     -17.028   2.132  36.679  1.00  0.00     0.104 A 
ATOM   1278  C2    T A  54     -18.247   1.457  38.634  1.00  0.00     0.331 A 
ATOM   1279  C5    T A  54     -15.846   1.961  37.278  1.00  0.00     0.092 A 
ATOM   1280  C4    T A  54     -15.791   1.517  38.635  1.00  0.00     0.250 A 
ATOM   1281  N3    T A  54     -17.017   1.296  39.215  1.00  0.00    -0.275 N 
ATOM   1282  O4    T A  54     -14.769   1.339  39.298  1.00  0.00    -0.268 OA
ATOM   1283  H3    T A  54     -17.017   0.984  40.175  1.00  0.00     0.173 HD
ATOM   1284  O2    T A  54     -19.280   1.232  39.238  1.00  0.00    -0.246 OA
ATOM   1285  O2'   T A  54     -21.576   3.250  36.979  1.00  0.00    -0.388 OA
ATOM   1286 'HO2   T A  54     -21.942   3.888  36.367  1.00  0.00     0.210 HD
ATOM   1287  O2'   G A  53     -18.125   0.791  32.351  1.00  0.00    -0.388 OA
ATOM   1288  C1'   G A  53     -16.298  -0.560  33.100  1.00  0.00     0.262 C 
ATOM   1289 'HO2   G A  53     -18.039   1.460  31.671  1.00  0.00     0.210 HD
ATOM   1290  N9    G A  53     -15.633  -0.905  34.353  1.00  0.00    -0.293 N 
ATOM   1291  C8    G A  53     -14.281  -0.938  34.597  1.00  0.00     0.214 A 
ATOM   1292  C4    G A  53     -16.246  -1.260  35.531  1.00  0.00     0.187 A 
ATOM   1293  N7    G A  53     -13.987  -1.282  35.821  1.00  0.00    -0.234 NA
ATOM   1294  C5    G A  53     -15.221  -1.488  36.424  1.00  0.00     0.173 A 
ATOM   1295  C6    G A  53     -15.546  -1.877  37.751  1.00  0.00     0.292 A 
ATOM   1296  O6    G A  53     -14.782  -2.125  38.692  1.00  0.00    -0.265 OA
ATOM   1297  N1    G A  53     -16.920  -1.967  37.935  1.00  0.00    -0.153 N 
ATOM   1298  C2    G A  53     -17.862  -1.716  36.972  1.00  0.00     0.703 A 
ATOM   1299  H1    G A  53     -17.247  -2.237  38.851  1.00  0.00     0.187 HD
ATOM   1300  N3    G A  53     -17.576  -1.355  35.734  1.00  0.00    -0.044 NA
ATOM   1301  N2    G A  53     -19.136  -1.854  37.344  1.00  0.00    -0.233 N 
ATOM   1302  H22   G A  53     -19.368  -2.129  38.289  1.00  0.00     0.174 HD
ATOM   1303  H21   G A  53     -19.871  -1.682  36.673  1.00  0.00     0.174 HD
BRANCH 1273 1304
ATOM   1304  O3'   T A  54     -20.609   5.372  35.530  1.00  0.00    -0.279 OA
BRANCH 1304 1305
ATOM   1305  P     C A  55     -20.646   6.597  36.572  1.00  0.00     0.408 P 
ATOM   1306  OP2   C A  55     -21.119   7.809  35.856  1.00  0.00    -0.624 OA
ATOM   1307  OP1   C A  55     -21.373   6.128  37.780  1.00  0.00    -0.624 OA
BRANCH 1305 1308
ATOM   1308  O5'   C A  55     -19.118   6.818  36.965  1.00  0.00    -0.287 OA
BRANCH 1308 1309
ATOM   1309  C5'   C A  55     -18.592   6.307  38.190  1.00  0.00     0.216 C 
BRANCH 1309 1310
ATOM   1310  C4'   C A  55     -17.805   7.379  38.907  1.00  0.00     0.180 C 
ATOM   1311  O4'   C A  55     -18.139   8.673  38.339  1.00  0.00    -0.353 OA
ATOM   1312  C1'   C A  55     -18.139   9.657  39.359  1.00  0.00     0.264 C 
ATOM   1313  N1    C A  55     -19.480  10.261  39.422  1.00  0.00    -0.278 N 
ATOM   1314  C2'   C A  55     -17.708   8.979  40.661  1.00  0.00     0.199 C 
ATOM   1315  C2    C A  55     -19.601  11.592  39.826  1.00  0.00     0.352 A 
ATOM   1316  C6    C A  55     -20.592   9.536  39.093  1.00  0.00     0.102 A 
ATOM   1317  N3    C A  55     -20.827  12.157  39.886  1.00  0.00    -0.177 NA
ATOM   1318  O2    C A  55     -18.578  12.226  40.120  1.00  0.00    -0.244 OA
ATOM   1319  C4    C A  55     -21.905  11.444  39.560  1.00  0.00     0.128 A 
ATOM   1320  N4    C A  55     -23.092  12.043  39.633  1.00  0.00    -0.384 N 
ATOM   1321  C5    C A  55     -21.813  10.083  39.145  1.00  0.00     0.067 A 
ATOM   1322  H42   C A  55     -23.144  13.010  39.925  1.00  0.00     0.157 HD
ATOM   1323  H41   C A  55     -23.934  11.540  39.395  1.00  0.00     0.157 HD
ATOM   1324  C3'   C A  55     -18.105   7.532  40.392  1.00  0.00     0.198 C 
BRANCH 1314 1325
ATOM   1325  O2'   C A  55     -16.306   9.109  40.796  1.00  0.00    -0.388 OA
ATOM   1326 'HO2   C A  55     -16.094   8.892  41.705  1.00  0.00     0.210 HD
ENDBRANCH 1314 1325
BRANCH 1324 1327
ATOM   1327  O3'   C A  55     -17.354   6.608  41.176  1.00  0.00    -0.279 OA
BRANCH 1327 1328
ATOM   1328  P     A A  56     -17.991   5.182  41.559  1.00  0.00     0.408 P 
ATOM   1329  O5'   A A  56     -17.516   4.935  43.060  1.00  0.00    -0.287 OA
ATOM   1330  C5'   A A  56     -16.132   4.802  43.380  1.00  0.00     0.216 C 
ATOM   1331  C4'   A A  56     -15.970   4.319  44.804  1.00  0.00     0.180 C 
ATOM   1332  O4'   A A  56     -16.051   5.458  45.700  1.00  0.00    -0.353 OA
ATOM   1333  C3'   A A  56     -17.051   3.368  45.300  1.00  0.00     0.182 C 
ATOM   1334  C1'   A A  56     -16.712   5.081  46.894  1.00  0.00     0.262 C 
ATOM   1335  N9    A A  56     -17.908   5.909  47.038  1.00  0.00    -0.294 N 
ATOM   1336  C2'   A A  56     -17.009   3.583  46.810  1.00  0.00     0.198 C 
ATOM   1337  C4    A A  56     -18.345   6.515  48.191  1.00  0.00     0.167 A 
ATOM   1338  C8    A A  56     -18.823   6.243  46.069  1.00  0.00     0.214 A 
ATOM   1339  C5    A A  56     -19.508   7.180  47.851  1.00  0.00     0.149 A 
ATOM   1340  N3    A A  56     -17.768   6.472  49.405  1.00  0.00    -0.222 NA
ATOM   1341  C6    A A  56     -20.161   7.887  48.875  1.00  0.00     0.155 A 
ATOM   1342  N7    A A  56     -19.799   7.001  46.505  1.00  0.00    -0.236 NA
ATOM   1343  N1    A A  56     -19.608   7.865  50.105  1.00  0.00    -0.222 NA
ATOM   1344  N6    A A  56     -21.292   8.572  48.698  1.00  0.00    -0.382 N 
ATOM   1345  C2    A A  56     -18.474   7.176  50.286  1.00  0.00     0.237 A 
ATOM   1346  H61   A A  56     -21.726   8.602  47.787  1.00  0.00     0.157 HD
ATOM   1347  H62   A A  56     -21.705   9.063  49.476  1.00  0.00     0.157 HD
ATOM   1348  O2'   A A  56     -15.936   2.873  47.399  1.00  0.00    -0.388 OA
ATOM   1349 'HO2   A A  56     -15.762   2.115  46.839  1.00  0.00     0.210 HD
ATOM   1350  O3'   A A  56     -16.788   2.009  44.933  1.00  0.00    -0.390 OA
ATOM   1351 'HO3   A A  56     -16.691   1.988  43.978  1.00  0.00     0.210 HD
ATOM   1352  OP2   A A  56     -19.470   5.308  41.554  1.00  0.00    -0.624 OA
ATOM   1353  OP1   A A  56     -17.340   4.161  40.698  1.00  0.00    -0.624 OA
ENDBRANCH 1327 1328
ENDBRANCH 1324 1327
ENDBRANCH 1309 1310
ENDBRANCH 1308 1309
ENDBRANCH 1305 1308
ENDBRANCH 1304 1305
ENDBRANCH 1273 1304
ENDBRANCH 1158 1174
ENDBRANCH 1156 1157
ENDBRANCH 1155 1156
ENDBRANCH 1152 1155
ENDBRANCH 1151 1152
ENDBRANCH 1149 1151
ENDBRANCH 1134 1135
ENDBRANCH 1133 1134
ENDBRANCH 1130 1133
ENDBRANCH 1061 1130
ENDBRANCH 964 965
ENDBRANCH 963 964
ENDBRANCH 960 963
ENDBRANCH 959 960
ENDBRANCH 939 959
ENDBRANCH 937 938
ENDBRANCH 936 937
ENDBRANCH 933 936
ENDBRANCH 932 933
ENDBRANCH 844 932
BRANCH 927 1354
ATOM   1354  N4    C A  33       7.901   2.729  24.150  1.00  0.00    -0.384 N 
ATOM   1355  H42   C A  33       8.279   2.126  24.866  1.00  0.00     0.157 HD
ATOM   1356  H41   C A  33       8.523   3.225  23.527  1.00  0.00     0.157 HD
ENDBRANCH 927 1354
ENDBRANCH 742 743
ENDBRANCH 741 742
ENDBRANCH 738 741
ENDBRANCH 737 738
ENDBRANCH 703 737
ENDBRANCH 665 666
ENDBRANCH 664 665
ENDBRANCH 661 664
ENDBRANCH 660 661
ENDBRANCH 640 660
ENDBRANCH 638 639
ENDBRANCH 637 638
ENDBRANCH 634 637
ENDBRANCH 633 634
ENDBRANCH 588 633
BRANCH 561 1357
ATOM   1357  O2'   A A  24      -9.827  17.867  22.129  1.00  0.00    -0.388 OA
ATOM   1358 'HO2   A A  24      -9.584  18.635  22.648  1.00  0.00     0.210 HD
ENDBRANCH 561 1357
BRANCH 631 1359
ATOM   1359  N9    A A  24      -8.603  14.437  21.847  1.00  0.00    -0.294 N 
ATOM   1360  C8    A A  24      -7.400  13.782  21.751  1.00  0.00     0.214 A 
ATOM   1361  N7    A A  24      -7.409  12.580  22.277  1.00  0.00    -0.236 NA
ATOM   1362  C5    A A  24      -8.705  12.434  22.752  1.00  0.00     0.149 A 
ATOM   1363  C4    A A  24      -9.451  13.570  22.494  1.00  0.00     0.167 A 
ATOM   1364  C6    A A  24      -9.357  11.382  23.418  1.00  0.00     0.155 A 
ATOM   1365  N3    A A  24     -10.740  13.777  22.813  1.00  0.00    -0.222 NA
ATOM   1366  C2    A A  24     -11.244  12.716  23.437  1.00  0.00     0.237 A 
ATOM   1367  N1    A A  24     -10.652  11.558  23.754  1.00  0.00    -0.222 NA
ATOM   1368  N6    A A  24      -8.769  10.229  23.735  1.00  0.00    -0.382 N 
ATOM   1369  H62   A A  24      -9.301   9.514  24.213  1.00  0.00     0.157 HD
ATOM   1370  H61   A A  24      -7.802  10.070  23.495  1.00  0.00     0.157 HD
ENDBRANCH 631 1359
ENDBRANCH 557 558
ENDBRANCH 556 557
ENDBRANCH 553 556
ENDBRANCH 552 553
ENDBRANCH 534 552
BRANCH 535 1371
ATOM   1371  O2'   G A  23       0.090  16.347  21.149  1.00  0.00    -0.388 OA
ATOM   1372 'HO2   G A  23      -0.185  17.264  21.133  1.00  0.00     0.210 HD
ENDBRANCH 535 1371
ENDBRANCH 532 533
ENDBRANCH 531 532
ENDBRANCH 499 531
ENDBRANCH 484 485
ENDBRANCH 483 484
ENDBRANCH 480 483
ENDBRANCH 479 480
ENDBRANCH 465 479
BRANCH 467 1373
ATOM   1373  O2'   C A  20      -6.105  16.249  38.761  1.00  0.00    -0.388 OA
ATOM   1374 'HO2   C A  20      -6.664  15.591  39.174  1.00  0.00     0.210 HD
ENDBRANCH 467 1373
ENDBRANCH 462 463
ENDBRANCH 459 462
ENDBRANCH 458 459
ENDBRANCH 446 458
ENDBRANCH 441 442
ENDBRANCH 425 441
ENDBRANCH 299 300
ENDBRANCH 298 299
ENDBRANCH 295 298
ENDBRANCH 294 295
ENDBRANCH 291 294
ENDBRANCH 272 273
ENDBRANCH 271 272
ENDBRANCH 268 271
ENDBRANCH 267 268
ENDBRANCH 254 267
ENDBRANCH 249 250
ENDBRANCH 248 249
ENDBRANCH 245 248
ENDBRANCH 244 245
ENDBRANCH 227 244
ENDBRANCH 222 223
ENDBRANCH 206 222
ENDBRANCH 195 196
ENDBRANCH 194 195
ENDBRANCH 191 194
ENDBRANCH 190 191
ENDBRANCH 179 190
ENDBRANCH 173 174
ENDBRANCH 172 173
ENDBRANCH 169 172
ENDBRANCH 168 169
ENDBRANCH 167 168
TORSDOF 435
ENDMDL
MODEL 3
REMARK VINA RESULT:      -2.6      5.652     13.629
REMARK WARNING: 32 MAX_TORS EXCEEDED!!!
REMARK  104 active torsions:
REMARK  status: ('A' for Active; 'I' for Inactive)
REMARK       I    between atoms: O5'_2  and  C5'_3 
REMARK       I    between atoms: C5'_3  and  C4'_4 
REMARK       I    between atoms: C1'_6  and  N9_7 
REMARK       I    between atoms: C2_10  and  N2_11 
REMARK       I    between atoms: C2'_21  and  O2'_22 
REMARK       I    between atoms: C3'_24  and  O3'_25 
REMARK       I    between atoms: O3'_25  and  P_26 
REMARK       I    between atoms: P_26  and  O5'_29 
REMARK       I    between atoms: O5'_29  and  C5'_30 
REMARK       I    between atoms: C5'_30  and  C4'_31 
REMARK       I    between atoms: C1'_33  and  N9_34 
REMARK       I    between atoms: C6_39  and  N6_40 
REMARK       I    between atoms: C2'_46  and  O2'_47 
REMARK       I    between atoms: C3'_49  and  O3'_50 
REMARK       I    between atoms: O3'_50  and  P_51 
REMARK       I    between atoms: P_51  and  O5'_54 
REMARK       I    between atoms: O5'_54  and  C5'_55 
REMARK       I    between atoms: C5'_55  and  C4'_56 
REMARK       I    between atoms: C1'_58  and  N1_59 
REMARK       I    between atoms: C4_64  and  N4_65 
REMARK       I    between atoms: C2'_69  and  O2'_70 
REMARK       I    between atoms: C3'_72  and  O3'_73 
REMARK       I    between atoms: O3'_73  and  P_74 
REMARK       I    between atoms: P_74  and  O5'_77 
REMARK       I    between atoms: O5'_77  and  C5'_78 
REMARK       I    between atoms: C5'_78  and  C4'_79 
REMARK       I    between atoms: C1'_81  and  N1_82 
REMARK       I    between atoms: C4_87  and  N4_88 
REMARK       I    between atoms: C2'_92  and  O2'_93 
REMARK       I    between atoms: C3'_95  and  O3'_96 
REMARK       I    between atoms: O3'_96  and  P_97 
REMARK       I    between atoms: P_97  and  O5'_100 
REMARK       I    between atoms: O5'_100  and  C5'_101 
REMARK       I    between atoms: C5'_101  and  C4'_102 
REMARK       I    between atoms: C1'_104  and  N1_105 
REMARK       I    between atoms: C2'_114  and  O2'_115 
REMARK       I    between atoms: C3'_117  and  O3'_118 
REMARK       I    between atoms: O3'_118  and  P_119 
REMARK       I    between atoms: P_119  and  O5'_122 
REMARK       I    between atoms: O5'_122  and  C5'_123 
REMARK       I    between atoms: C5'_123  and  C4'_124 
REMARK       I    between atoms: C1'_126  and  N1_127 
REMARK       I    between atoms: C4_132  and  N4_133 
REMARK       I    between atoms: C2'_137  and  O2'_138 
REMARK       I    between atoms: C3'_140  and  O3'_141 
REMARK       I    between atoms: O3'_141  and  P_142 
REMARK       I    between atoms: P_142  and  O5'_145 
REMARK       I    between atoms: O5'_145  and  C5'_146 
REMARK       I    between atoms: C5'_146  and  C4'_147 
REMARK       I    between atoms: C1'_149  and  N9_150 
REMARK       I    between atoms: C2_153  and  N2_154 
REMARK       I    between atoms: C2'_164  and  O2'_165 
REMARK    1  A    between atoms: C3'_167  and  O3'_168 
REMARK    2  A    between atoms: O3'_168  and  P_169 
REMARK    3  A    between atoms: P_169  and  O5'_172 
REMARK    4  A    between atoms: O5'_172  and  C5'_173 
REMARK    5  A    between atoms: C5'_173  and  C4'_174 
REMARK       I    between atoms: C1'_176  and  N1_177 
REMARK    6  A    between atoms: C2'_186  and  O2'_187 
REMARK    7  A    between atoms: C3'_189  and  O3'_190 
REMARK    8  A    between atoms: O3'_190  and  P_191 
REMARK    9  A    between atoms: P_191  and  O5'_194 
REMARK   10  A    between atoms: O5'_194  and  C5'_195 
REMARK   11  A    between atoms: C5'_195  and  C4'_196 
REMARK       I    between atoms: C1'_198  and  N9_199 
REMARK       I    between atoms: C2_202  and  N2_203 
REMARK   12  A    between atoms: C2'_213  and  O2'_214 
REMARK       I    between atoms: C3'_216  and  O3'_217 
REMARK       I    between atoms: O3'_217  and  P_218 
REMARK       I    between atoms: P_218  and  O5'_221 
REMARK   13  A    between atoms: O5'_221  and  C5'_222 
REMARK   14  A    between atoms: C5'_222  and  C4'_223 
REMARK   15  A    between atoms: C1'_225  and  N9_226 
REMARK       I    between atoms: C2_229  and  N2_230 
REMARK   16  A    between atoms: C2'_240  and  O2'_241 
REMARK   17  A    between atoms: C3'_243  and  O3'_244 
REMARK   18  A    between atoms: O3'_244  and  P_245 
REMARK   19  A    between atoms: P_245  and  O5'_248 
REMARK   20  A    between atoms: O5'_248  and  C5'_249 
REMARK   21  A    between atoms: C5'_249  and  C4'_250 
REMARK   22  A    between atoms: C1'_252  and  N1_253 
REMARK       I    between atoms: C4_258  and  N4_259 
REMARK   23  A    between atoms: C2'_263  and  O2'_264 
REMARK   24  A    between atoms: C3'_266  and  O3'_267 
REMARK   25  A    between atoms: O3'_267  and  P_268 
REMARK   26  A    between atoms: P_268  and  O5'_271 
REMARK   27  A    between atoms: O5'_271  and  C5'_272 
REMARK   28  A    between atoms: C5'_272  and  C4'_273 
REMARK       I    between atoms: C1'_275  and  N9_276 
REMARK       I    between atoms: C2_279  and  N2_280 
REMARK   29  A    between atoms: C2'_290  and  O2'_291 
REMARK   30  A    between atoms: C3'_293  and  O3'_294 
REMARK   31  A    between atoms: O3'_294  and  P_295 
REMARK   32  A    between atoms: P_295  and  O5'_298 
REMARK   33  A    between atoms: O5'_298  and  C5'_299 
REMARK   34  A    between atoms: C5'_299  and  C4'_300 
REMARK       I    between atoms: C1'_302  and  N1_303 
REMARK       I    between atoms: C2'_312  and  O2'_313 
REMARK       I    between atoms: C3'_315  and  O3'_316 
REMARK       I    between atoms: O3'_316  and  P_317 
REMARK       I    between atoms: P_317  and  O5'_320 
REMARK       I    between atoms: O5'_320  and  C5'_321 
REMARK       I    between atoms: C5'_321  and  C4'_322 
REMARK       I    between atoms: C1'_324  and  N1_325 
REMARK       I    between atoms: C4_330  and  N4_331 
REMARK       I    between atoms: C2'_335  and  O2'_336 
REMARK       I    between atoms: C3'_338  and  O3'_339 
REMARK       I    between atoms: O3'_339  and  P_340 
REMARK       I    between atoms: P_340  and  O5'_343 
REMARK       I    between atoms: O5'_343  and  C5'_344 
REMARK       I    between atoms: C5'_344  and  C4'_345 
REMARK       I    between atoms: C1'_347  and  N1_348 
REMARK       I    between atoms: C2'_357  and  O2'_358 
REMARK       I    between atoms: C3'_360  and  O3'_361 
REMARK       I    between atoms: O3'_361  and  P_362 
REMARK       I    between atoms: P_362  and  O5'_365 
REMARK       I    between atoms: O5'_365  and  C5'_366 
REMARK       I    between atoms: C5'_366  and  C4'_367 
REMARK       I    between atoms: C1'_369  and  N9_370 
REMARK       I    between atoms: C2_373  and  N2_374 
REMARK       I    between atoms: C2'_384  and  O2'_385 
REMARK       I    between atoms: C3'_387  and  O3'_388 
REMARK       I    between atoms: O3'_388  and  P_389 
REMARK       I    between atoms: P_389  and  O5'_392 
REMARK       I    between atoms: O5'_392  and  C5'_393 
REMARK       I    between atoms: C5'_393  and  C4'_394 
REMARK       I    between atoms: C1'_396  and  N9_397 
REMARK       I    between atoms: C6_402  and  N6_403 
REMARK       I    between atoms: C2'_409  and  O2'_410 
REMARK       I    between atoms: C3'_412  and  O3'_413 
REMARK       I    between atoms: O3'_413  and  P_414 
REMARK       I    between atoms: P_414  and  O5'_417 
REMARK       I    between atoms: O5'_417  and  C5'_418 
REMARK       I    between atoms: C5'_418  and  C4'_419 
REMARK       I    between atoms: C1'_421  and  N1_422 
REMARK       I    between atoms: C4_427  and  N4_428 
REMARK       I    between atoms: C2'_432  and  O2'_433 
REMARK       I    between atoms: C3'_435  and  O3'_436 
REMARK       I    between atoms: O3'_436  and  P_437 
REMARK       I    between atoms: P_437  and  O5'_440 
REMARK   35  A    between atoms: O5'_440  and  C5'_441 
REMARK   36  A    between atoms: C5'_441  and  C4'_442 
REMARK   37  A    between atoms: C1'_444  and  N1_445 
REMARK   38  A    between atoms: C2'_454  and  O2'_455 
REMARK   39  A    between atoms: C3'_457  and  O3'_458 
REMARK   40  A    between atoms: O3'_458  and  P_459 
REMARK   41  A    between atoms: P_459  and  O5'_462 
REMARK   42  A    between atoms: O5'_462  and  C5'_463 
REMARK       I    between atoms: C5'_463  and  C4'_464 
REMARK       I    between atoms: C1'_466  and  N1_467 
REMARK       I    between atoms: C4_472  and  N4_473 
REMARK   43  A    between atoms: C2'_477  and  O2'_478 
REMARK   44  A    between atoms: C3'_480  and  O3'_481 
REMARK   45  A    between atoms: O3'_481  and  P_482 
REMARK   46  A    between atoms: P_482  and  O5'_485 
REMARK   47  A    between atoms: O5'_485  and  C5'_486 
REMARK   48  A    between atoms: C5'_486  and  C4'_487 
REMARK       I    between atoms: C1'_489  and  N1_490 
REMARK       I    between atoms: C4_495  and  N4_496 
REMARK       I    between atoms: C2'_500  and  O2'_501 
REMARK       I    between atoms: C3'_503  and  O3'_504 
REMARK       I    between atoms: O3'_504  and  P_505 
REMARK       I    between atoms: P_505  and  O5'_508 
REMARK       I    between atoms: O5'_508  and  C5'_509 
REMARK       I    between atoms: C5'_509  and  C4'_510 
REMARK       I    between atoms: C1'_512  and  N9_513 
REMARK       I    between atoms: C6_518  and  N6_519 
REMARK       I    between atoms: C2'_525  and  O2'_526 
REMARK       I    between atoms: C3'_528  and  O3'_529 
REMARK       I    between atoms: O3'_529  and  P_530 
REMARK   49  A    between atoms: P_530  and  O5'_533 
REMARK   50  A    between atoms: O5'_533  and  C5'_534 
REMARK   51  A    between atoms: C5'_534  and  C4'_535 
REMARK       I    between atoms: C1'_537  and  N9_538 
REMARK       I    between atoms: C2_541  and  N2_542 
REMARK   52  A    between atoms: C2'_552  and  O2'_553 
REMARK   53  A    between atoms: C3'_555  and  O3'_556 
REMARK   54  A    between atoms: O3'_556  and  P_557 
REMARK   55  A    between atoms: P_557  and  O5'_560 
REMARK   56  A    between atoms: O5'_560  and  C5'_561 
REMARK   57  A    between atoms: C5'_561  and  C4'_562 
REMARK   58  A    between atoms: C1'_564  and  N9_565 
REMARK       I    between atoms: C6_570  and  N6_571 
REMARK   59  A    between atoms: C2'_577  and  O2'_578 
REMARK       I    between atoms: C3'_580  and  O3'_581 
REMARK       I    between atoms: O3'_581  and  P_582 
REMARK       I    between atoms: P_582  and  O5'_585 
REMARK       I    between atoms: O5'_585  and  C5'_586 
REMARK       I    between atoms: C5'_586  and  C4'_587 
REMARK       I    between atoms: C1'_589  and  N1_590 
REMARK       I    between atoms: C2'_599  and  O2'_600 
REMARK       I    between atoms: C3'_602  and  O3'_603 
REMARK       I    between atoms: O3'_603  and  P_604 
REMARK       I    between atoms: P_604  and  O5'_607 
REMARK       I    between atoms: O5'_607  and  C5'_608 
REMARK       I    between atoms: C5'_608  and  C4'_609 
REMARK       I    between atoms: C1'_611  and  N1_612 
REMARK       I    between atoms: C4_617  and  N4_618 
REMARK       I    between atoms: C2'_622  and  O2'_623 
REMARK       I    between atoms: C3'_625  and  O3'_626 
REMARK       I    between atoms: O3'_626  and  P_627 
REMARK       I    between atoms: P_627  and  O5'_630 
REMARK       I    between atoms: O5'_630  and  C5'_631 
REMARK       I    between atoms: C5'_631  and  C4'_632 
REMARK       I    between atoms: C1'_634  and  N9_635 
REMARK       I    between atoms: C6_640  and  N6_641 
REMARK       I    between atoms: C2'_647  and  O2'_648 
REMARK   60  A    between atoms: C3'_650  and  O3'_651 
REMARK   61  A    between atoms: O3'_651  and  P_652 
REMARK   62  A    between atoms: P_652  and  O5'_655 
REMARK   63  A    between atoms: O5'_655  and  C5'_656 
REMARK   64  A    between atoms: C5'_656  and  C4'_657 
REMARK       I    between atoms: C1'_659  and  N9_660 
REMARK       I    between atoms: C2_663  and  N2_664 
REMARK       I    between atoms: C2'_674  and  O2'_675 
REMARK   65  A    between atoms: C3'_677  and  O3'_678 
REMARK   66  A    between atoms: O3'_678  and  P_679 
REMARK   67  A    between atoms: P_679  and  O5'_682 
REMARK   68  A    between atoms: O5'_682  and  C5'_683 
REMARK   69  A    between atoms: C5'_683  and  C4'_684 
REMARK       I    between atoms: C1'_686  and  N9_687 
REMARK       I    between atoms: C6_692  and  N6_693 
REMARK       I    between atoms: C2'_699  and  O2'_700 
REMARK       I    between atoms: C3'_702  and  O3'_703 
REMARK       I    between atoms: O3'_703  and  P_704 
REMARK       I    between atoms: P_704  and  O5'_707 
REMARK       I    between atoms: O5'_707  and  C5'_708 
REMARK       I    between atoms: C5'_708  and  C4'_709 
REMARK       I    between atoms: C1'_711  and  N9_712 
REMARK       I    between atoms: C6_717  and  N6_718 
REMARK       I    between atoms: C2'_724  and  O2'_725 
REMARK       I    between atoms: C3'_727  and  O3'_728 
REMARK       I    between atoms: O3'_728  and  P_729 
REMARK       I    between atoms: P_729  and  O5'_732 
REMARK       I    between atoms: O5'_732  and  C5'_733 
REMARK       I    between atoms: C5'_733  and  C4'_734 
REMARK       I    between atoms: C1'_736  and  N9_737 
REMARK       I    between atoms: C2_740  and  N2_741 
REMARK       I    between atoms: C2'_751  and  O2'_752 
REMARK   70  A    between atoms: C3'_754  and  O3'_755 
REMARK   71  A    between atoms: O3'_755  and  P_756 
REMARK   72  A    between atoms: P_756  and  O5'_759 
REMARK   73  A    between atoms: O5'_759  and  C5'_760 
REMARK   74  A    between atoms: C5'_760  and  C4'_761 
REMARK       I    between atoms: C1'_763  and  N9_764 
REMARK       I    between atoms: C2_767  and  N2_768 
REMARK       I    between atoms: C2'_778  and  O2'_779 
REMARK       I    between atoms: C3'_781  and  O3'_782 
REMARK       I    between atoms: O3'_782  and  P_783 
REMARK       I    between atoms: P_783  and  O5'_786 
REMARK       I    between atoms: O5'_786  and  C5'_787 
REMARK       I    between atoms: C5'_787  and  C4'_788 
REMARK       I    between atoms: C1'_790  and  N1_791 
REMARK   75  A    between atoms: C4_796  and  N4_797 
REMARK       I    between atoms: C2'_801  and  O2'_802 
REMARK       I    between atoms: C3'_804  and  O3'_805 
REMARK       I    between atoms: O3'_805  and  P_806 
REMARK       I    between atoms: P_806  and  O5'_809 
REMARK       I    between atoms: O5'_809  and  C5'_810 
REMARK       I    between atoms: C5'_810  and  C4'_811 
REMARK       I    between atoms: C1'_813  and  N1_814 
REMARK       I    between atoms: C2'_823  and  O2'_824 
REMARK       I    between atoms: C3'_826  and  O3'_827 
REMARK       I    between atoms: O3'_827  and  P_828 
REMARK       I    between atoms: P_828  and  O5'_831 
REMARK       I    between atoms: O5'_831  and  C5'_832 
REMARK       I    between atoms: C5'_832  and  C4'_833 
REMARK       I    between atoms: C1'_835  and  N9_836 
REMARK       I    between atoms: C2_839  and  N2_840 
REMARK       I    between atoms: C2'_850  and  O2'_851 
REMARK       I    between atoms: C3'_853  and  O3'_854 
REMARK       I    between atoms: O3'_854  and  P_855 
REMARK       I    between atoms: P_855  and  O5'_858 
REMARK       I    between atoms: O5'_858  and  C5'_859 
REMARK       I    between atoms: C5'_859  and  C4'_860 
REMARK       I    between atoms: C1'_862  and  N1_863 
REMARK       I    between atoms: C4_868  and  N4_869 
REMARK       I    between atoms: C2'_873  and  O2'_874 
REMARK       I    between atoms: C3'_876  and  O3'_877 
REMARK       I    between atoms: O3'_877  and  P_878 
REMARK       I    between atoms: P_878  and  O5'_881 
REMARK       I    between atoms: O5'_881  and  C5'_882 
REMARK       I    between atoms: C5'_882  and  C4'_883 
REMARK       I    between atoms: C1'_885  and  N9_886 
REMARK       I    between atoms: C2_889  and  N2_890 
REMARK       I    between atoms: C2'_900  and  O2'_901 
REMARK       I    between atoms: C3'_903  and  O3'_904 
REMARK       I    between atoms: O3'_904  and  P_905 
REMARK       I    between atoms: P_905  and  O5'_908 
REMARK       I    between atoms: O5'_908  and  C5'_909 
REMARK       I    between atoms: C5'_909  and  C4'_910 
REMARK       I    between atoms: C1'_912  and  N1_913 
REMARK       I    between atoms: C2'_922  and  O2'_923 
REMARK       I    between atoms: C3'_925  and  O3'_926 
REMARK       I    between atoms: O3'_926  and  P_927 
REMARK       I    between atoms: P_927  and  O5'_930 
REMARK       I    between atoms: O5'_930  and  C5'_931 
REMARK       I    between atoms: C5'_931  and  C4'_932 
REMARK       I    between atoms: C1'_934  and  N9_935 
REMARK       I    between atoms: C2_938  and  N2_939 
REMARK   76  A    between atoms: C2'_949  and  O2'_950 
REMARK   77  A    between atoms: C3'_952  and  O3'_953 
REMARK   78  A    between atoms: O3'_953  and  P_954 
REMARK   79  A    between atoms: P_954  and  O5'_957 
REMARK   80  A    between atoms: O5'_957  and  C5'_958 
REMARK   81  A    between atoms: C5'_958  and  C4'_959 
REMARK       I    between atoms: C1'_961  and  N9_962 
REMARK       I    between atoms: C2_965  and  N2_966 
REMARK       I    between atoms: C2'_976  and  O2'_977 
REMARK   82  A    between atoms: C3'_979  and  O3'_980 
REMARK   83  A    between atoms: O3'_980  and  P_981 
REMARK   84  A    between atoms: P_981  and  O5'_984 
REMARK   85  A    between atoms: O5'_984  and  C5'_985 
REMARK   86  A    between atoms: C5'_985  and  C4'_986 
REMARK       I    between atoms: C1'_988  and  N9_989 
REMARK       I    between atoms: C6_994  and  N6_995 
REMARK       I    between atoms: C2'_1001  and  O2'_1002 
REMARK       I    between atoms: C3'_1004  and  O3'_1005 
REMARK       I    between atoms: O3'_1005  and  P_1006 
REMARK       I    between atoms: P_1006  and  O5'_1009 
REMARK       I    between atoms: O5'_1009  and  C5'_1010 
REMARK       I    between atoms: C5'_1010  and  C4'_1011 
REMARK       I    between atoms: C1'_1013  and  N9_1014 
REMARK       I    between atoms: C6_1019  and  N6_1020 
REMARK       I    between atoms: C2'_1026  and  O2'_1027 
REMARK       I    between atoms: C3'_1029  and  O3'_1030 
REMARK       I    between atoms: O3'_1030  and  P_1031 
REMARK       I    between atoms: P_1031  and  O5'_1034 
REMARK       I    between atoms: O5'_1034  and  C5'_1035 
REMARK       I    between atoms: C5'_1035  and  C4'_1036 
REMARK       I    between atoms: C1'_1038  and  N1_1039 
REMARK       I    between atoms: C2'_1048  and  O2'_1049 
REMARK       I    between atoms: C3'_1051  and  O3'_1052 
REMARK       I    between atoms: O3'_1052  and  P_1053 
REMARK       I    between atoms: P_1053  and  O5'_1056 
REMARK       I    between atoms: O5'_1056  and  C5'_1057 
REMARK       I    between atoms: C5'_1057  and  C4'_1058 
REMARK       I    between atoms: C1'_1060  and  N1_1061 
REMARK       I    between atoms: C4_1066  and  N4_1067 
REMARK       I    between atoms: C2'_1071  and  O2'_1072 
REMARK       I    between atoms: C3'_1074  and  O3'_1075 
REMARK       I    between atoms: O3'_1075  and  P_1076 
REMARK       I    between atoms: P_1076  and  O5'_1079 
REMARK       I    between atoms: O5'_1079  and  C5'_1080 
REMARK       I    between atoms: C5'_1080  and  C4'_1081 
REMARK       I    between atoms: C1'_1083  and  N9_1084 
REMARK       I    between atoms: C6_1089  and  N6_1090 
REMARK       I    between atoms: C2'_1096  and  O2'_1097 
REMARK       I    between atoms: C3'_1099  and  O3'_1100 
REMARK       I    between atoms: O3'_1100  and  P_1101 
REMARK       I    between atoms: P_1101  and  O5'_1104 
REMARK       I    between atoms: O5'_1104  and  C5'_1105 
REMARK       I    between atoms: C5'_1105  and  C4'_1106 
REMARK       I    between atoms: C1'_1108  and  N1_1109 
REMARK       I    between atoms: C4_1114  and  N4_1115 
REMARK       I    between atoms: C2'_1119  and  O2'_1120 
REMARK       I    between atoms: C3'_1122  and  O3'_1123 
REMARK       I    between atoms: O3'_1123  and  P_1124 
REMARK       I    between atoms: P_1124  and  O5'_1127 
REMARK       I    between atoms: O5'_1127  and  C5'_1128 
REMARK       I    between atoms: C5'_1128  and  C4'_1129 
REMARK       I    between atoms: C1'_1131  and  N9_1132 
REMARK       I    between atoms: C2_1135  and  N2_1136 
REMARK       I    between atoms: C2'_1146  and  O2'_1147 
REMARK       I    between atoms: C3'_1149  and  O3'_1150 
REMARK   87  A    between atoms: O3'_1150  and  P_1151 
REMARK   88  A    between atoms: P_1151  and  O5'_1154 
REMARK   89  A    between atoms: O5'_1154  and  C5'_1155 
REMARK   90  A    between atoms: C5'_1155  and  C4'_1156 
REMARK       I    between atoms: C1'_1158  and  N1_1159 
REMARK       I    between atoms: C2'_1168  and  O2'_1169 
REMARK   91  A    between atoms: C3'_1171  and  O3'_1172 
REMARK   92  A    between atoms: O3'_1172  and  P_1173 
REMARK   93  A    between atoms: P_1173  and  O5'_1176 
REMARK   94  A    between atoms: O5'_1176  and  C5'_1177 
REMARK   95  A    between atoms: C5'_1177  and  C4'_1178 
REMARK       I    between atoms: C1'_1180  and  N1_1181 
REMARK       I    between atoms: C4_1186  and  N4_1187 
REMARK       I    between atoms: C2'_1191  and  O2'_1192 
REMARK   96  A    between atoms: C3'_1194  and  O3'_1195 
REMARK       I    between atoms: O3'_1195  and  P_1196 
REMARK       I    between atoms: P_1196  and  O5'_1199 
REMARK       I    between atoms: O5'_1199  and  C5'_1200 
REMARK       I    between atoms: C5'_1200  and  C4'_1201 
REMARK       I    between atoms: C1'_1203  and  N9_1204 
REMARK       I    between atoms: C2_1207  and  N2_1208 
REMARK       I    between atoms: C2'_1218  and  O2'_1219 
REMARK       I    between atoms: C3'_1221  and  O3'_1222 
REMARK       I    between atoms: O3'_1222  and  P_1223 
REMARK       I    between atoms: P_1223  and  O5'_1226 
REMARK       I    between atoms: O5'_1226  and  C5'_1227 
REMARK       I    between atoms: C5'_1227  and  C4'_1228 
REMARK       I    between atoms: C1'_1230  and  N9_1231 
REMARK       I    between atoms: C2_1234  and  N2_1235 
REMARK       I    between atoms: C2'_1245  and  O2'_1246 
REMARK       I    between atoms: C3'_1248  and  O3'_1249 
REMARK       I    between atoms: O3'_1249  and  P_1250 
REMARK       I    between atoms: P_1250  and  O5'_1253 
REMARK       I    between atoms: O5'_1253  and  C5'_1254 
REMARK       I    between atoms: C5'_1254  and  C4'_1255 
REMARK       I    between atoms: C1'_1257  and  N9_1258 
REMARK       I    between atoms: C2_1261  and  N2_1262 
REMARK       I    between atoms: C2'_1272  and  O2'_1273 
REMARK       I    between atoms: C3'_1275  and  O3'_1276 
REMARK       I    between atoms: O3'_1276  and  P_1277 
REMARK       I    between atoms: P_1277  and  O5'_1280 
REMARK       I    between atoms: O5'_1280  and  C5'_1281 
REMARK       I    between atoms: C5'_1281  and  C4'_1282 
REMARK       I    between atoms: C1'_1284  and  N9_1285 
REMARK       I    between atoms: C2_1288  and  N2_1289 
REMARK       I    between atoms: C2'_1299  and  O2'_1300 
REMARK       I    between atoms: C3'_1302  and  O3'_1303 
REMARK       I    between atoms: O3'_1303  and  P_1304 
REMARK       I    between atoms: P_1304  and  O5'_1307 
REMARK       I    between atoms: O5'_1307  and  C5'_1308 
REMARK       I    between atoms: C5'_1308  and  C4'_1309 
REMARK       I    between atoms: C1'_1311  and  N1_1312 
REMARK       I    between atoms: C2'_1321  and  O2'_1322 
REMARK   97  A    between atoms: C3'_1324  and  O3'_1325 
REMARK   98  A    between atoms: O3'_1325  and  P_1326 
REMARK   99  A    between atoms: P_1326  and  O5'_1329 
REMARK  100  A    between atoms: O5'_1329  and  C5'_1330 
REMARK  101  A    between atoms: C5'_1330  and  C4'_1331 
REMARK       I    between atoms: C1'_1333  and  N1_1334 
REMARK       I    between atoms: C4_1339  and  N4_1340 
REMARK  102  A    between atoms: C2'_1344  and  O2'_1345 
REMARK  103  A    between atoms: C3'_1347  and  O3'_1348 
REMARK  104  A    between atoms: O3'_1348  and  P_1349 
REMARK       I    between atoms: P_1349  and  O5'_1352 
REMARK       I    between atoms: O5'_1352  and  C5'_1353 
REMARK       I    between atoms: C5'_1353  and  C4'_1354 
REMARK       I    between atoms: C1'_1356  and  N9_1357 
REMARK       I    between atoms: C6_1362  and  N6_1363 
REMARK       I    between atoms: C2'_1369  and  O2'_1370 
REMARK       I    between atoms: C3'_1372  and  O3'_1373 
ROOT
ATOM      1 'HO5   G A   1     -42.576  16.012  24.868  1.00  0.00     0.209 HD
ATOM      2  O5'   G A   1     -42.022  15.574  24.216  1.00  0.00    -0.398 OA
ATOM      3  C5'   G A   1     -41.180  16.578  23.643  1.00  0.00     0.198 C 
ATOM      4  C4'   G A   1     -40.914  17.692  24.631  1.00  0.00     0.180 C 
ATOM      5  O4'   G A   1     -41.839  17.565  25.751  1.00  0.00    -0.353 OA
ATOM      6  C1'   G A   1     -41.142  17.754  26.970  1.00  0.00     0.262 C 
ATOM      7  N9    G A   1     -41.050  16.468  27.654  1.00  0.00    -0.293 N 
ATOM      8  C4    G A   1     -40.620  16.258  28.942  1.00  0.00     0.187 A 
ATOM      9  N3    G A   1     -40.211  17.211  29.806  1.00  0.00    -0.044 NA
ATOM     10  C2    G A   1     -39.858  16.699  30.971  1.00  0.00     0.703 A 
ATOM     11  N2    G A   1     -39.428  17.505  31.945  1.00  0.00    -0.233 N 
ATOM     12  H21   G A   1     -39.377  18.499  31.780  1.00  0.00     0.174 HD
ATOM     13  H22   G A   1     -39.160  17.122  32.841  1.00  0.00     0.174 HD
ATOM     14  N1    G A   1     -39.901  15.361  31.268  1.00  0.00    -0.153 N 
ATOM     15  H1    G A   1     -39.609  15.077  32.190  1.00  0.00     0.187 HD
ATOM     16  C6    G A   1     -40.314  14.362  30.394  1.00  0.00     0.292 A 
ATOM     17  O6    G A   1     -40.309  13.182  30.764  1.00  0.00    -0.265 OA
ATOM     18  C5    G A   1     -40.701  14.895  29.138  1.00  0.00     0.173 A 
ATOM     19  N7    G A   1     -41.173  14.261  27.997  1.00  0.00    -0.234 NA
ATOM     20  C8    G A   1     -41.366  15.231  27.147  1.00  0.00     0.214 A 
ATOM     21  C2'   G A   1     -39.784  18.351  26.612  1.00  0.00     0.199 C 
ATOM     22  O2'   G A   1     -39.924  19.753  26.473  1.00  0.00    -0.388 OA
ATOM     23 'HO2   G A   1     -39.115  20.075  26.076  1.00  0.00     0.210 HD
ATOM     24  C3'   G A   1     -39.530  17.682  25.268  1.00  0.00     0.198 C 
ATOM     25  O3'   G A   1     -38.578  18.388  24.476  1.00  0.00    -0.279 OA
ATOM     26  P     A A   2     -37.058  17.868  24.401  1.00  0.00     0.408 P 
ATOM     27  OP1   A A   2     -36.352  18.715  23.407  1.00  0.00    -0.624 OA
ATOM     28  OP2   A A   2     -37.073  16.393  24.228  1.00  0.00    -0.624 OA
ATOM     29  O5'   A A   2     -36.466  18.195  25.845  1.00  0.00    -0.287 OA
ATOM     30  C5'   A A   2     -36.327  19.541  26.294  1.00  0.00     0.216 C 
ATOM     31  C4'   A A   2     -35.739  19.570  27.685  1.00  0.00     0.180 C 
ATOM     32  O4'   A A   2     -36.716  19.040  28.623  1.00  0.00    -0.353 OA
ATOM     33  C1'   A A   2     -36.056  18.272  29.616  1.00  0.00     0.262 C 
ATOM     34  N9    A A   2     -36.507  16.885  29.502  1.00  0.00    -0.294 N 
ATOM     35  C4    A A   2     -36.394  15.913  30.466  1.00  0.00     0.167 A 
ATOM     36  N3    A A   2     -35.855  16.039  31.691  1.00  0.00    -0.222 NA
ATOM     37  C2    A A   2     -35.916  14.886  32.352  1.00  0.00     0.237 A 
ATOM     38  N1    A A   2     -36.417  13.707  31.956  1.00  0.00    -0.222 NA
ATOM     39  C6    A A   2     -36.950  13.615  30.719  1.00  0.00     0.155 A 
ATOM     40  N6    A A   2     -37.448  12.443  30.325  1.00  0.00    -0.382 N 
ATOM     41  H61   A A   2     -37.852  12.353  29.404  1.00  0.00     0.157 HD
ATOM     42  H62   A A   2     -37.423  11.645  30.946  1.00  0.00     0.157 HD
ATOM     43  C5    A A   2     -36.947  14.770  29.917  1.00  0.00     0.149 A 
ATOM     44  N7    A A   2     -37.403  15.017  28.630  1.00  0.00    -0.236 NA
ATOM     45  C8    A A   2     -37.120  16.281  28.432  1.00  0.00     0.214 A 
ATOM     46  C2'   A A   2     -34.553  18.444  29.399  1.00  0.00     0.199 C 
ATOM     47  O2'   A A   2     -34.114  19.572  30.131  1.00  0.00    -0.388 OA
ATOM     48 'HO2   A A   2     -33.405  19.970  29.626  1.00  0.00     0.210 HD
ATOM     49  C3'   A A   2     -34.505  18.705  27.899  1.00  0.00     0.198 C 
ATOM     50  O3'   A A   2     -33.314  19.374  27.498  1.00  0.00    -0.279 OA
ATOM     51  P     C A   3     -32.065  18.522  26.944  1.00  0.00     0.408 P 
ATOM     52  OP1   C A   3     -31.069  19.493  26.422  1.00  0.00    -0.624 OA
ATOM     53  OP2   C A   3     -32.580  17.450  26.055  1.00  0.00    -0.624 OA
ATOM     54  O5'   C A   3     -31.456  17.838  28.249  1.00  0.00    -0.287 OA
ATOM     55  C5'   C A   3     -30.810  18.618  29.253  1.00  0.00     0.216 C 
ATOM     56  C4'   C A   3     -30.603  17.796  30.504  1.00  0.00     0.180 C 
ATOM     57  O4'   C A   3     -31.878  17.244  30.937  1.00  0.00    -0.353 OA
ATOM     58  C1'   C A   3     -31.666  15.975  31.535  1.00  0.00     0.264 C 
ATOM     59  N1    C A   3     -32.421  14.963  30.775  1.00  0.00    -0.278 N 
ATOM     60  C6    C A   3     -32.913  15.240  29.530  1.00  0.00     0.102 A 
ATOM     61  C2    C A   3     -32.622  13.704  31.348  1.00  0.00     0.352 A 
ATOM     62  O2    C A   3     -32.168  13.477  32.478  1.00  0.00    -0.244 OA
ATOM     63  N3    C A   3     -33.305  12.765  30.658  1.00  0.00    -0.177 NA
ATOM     64  C4    C A   3     -33.781  13.044  29.445  1.00  0.00     0.128 A 
ATOM     65  N4    C A   3     -34.446  12.085  28.802  1.00  0.00    -0.384 N 
ATOM     66  H41   C A   3     -34.821  12.254  27.880  1.00  0.00     0.157 HD
ATOM     67  H42   C A   3     -34.570  11.183  29.241  1.00  0.00     0.157 HD
ATOM     68  C5    C A   3     -33.595  14.320  28.835  1.00  0.00     0.067 A 
ATOM     69  C2'   C A   3     -30.158  15.722  31.543  1.00  0.00     0.199 C 
ATOM     70  O2'   C A   3     -29.623  16.220  32.756  1.00  0.00    -0.388 OA
ATOM     71 'HO2   C A   3     -28.966  16.877  32.522  1.00  0.00     0.210 HD
ATOM     72  C3'   C A   3     -29.718  16.566  30.356  1.00  0.00     0.198 C 
ATOM     73  O3'   C A   3     -28.330  16.888  30.401  1.00  0.00    -0.279 OA
ATOM     74  P     C A   4     -27.254  15.878  29.756  1.00  0.00     0.408 P 
ATOM     75  OP1   C A   4     -25.970  16.610  29.626  1.00  0.00    -0.624 OA
ATOM     76  OP2   C A   4     -27.864  15.251  28.555  1.00  0.00    -0.624 OA
ATOM     77  O5'   C A   4     -27.072  14.743  30.862  1.00  0.00    -0.287 OA
ATOM     78  C5'   C A   4     -26.862  15.078  32.234  1.00  0.00     0.216 C 
ATOM     79  C4'   C A   4     -26.675  13.823  33.057  1.00  0.00     0.180 C 
ATOM     80  O4'   C A   4     -27.985  13.264  33.362  1.00  0.00    -0.353 OA
ATOM     81  C1'   C A   4     -27.955  11.857  33.199  1.00  0.00     0.264 C 
ATOM     82  N1    C A   4     -28.769  11.506  32.023  1.00  0.00    -0.278 N 
ATOM     83  C6    C A   4     -28.921  12.388  30.989  1.00  0.00     0.102 A 
ATOM     84  C2    C A   4     -29.383  10.250  31.973  1.00  0.00     0.352 A 
ATOM     85  O2    C A   4     -29.233   9.469  32.924  1.00  0.00    -0.244 OA
ATOM     86  N3    C A   4     -30.126   9.920  30.893  1.00  0.00    -0.177 NA
ATOM     87  C4    C A   4     -30.267  10.789  29.890  1.00  0.00     0.128 A 
ATOM     88  N4    C A   4     -31.005  10.417  28.846  1.00  0.00    -0.384 N 
ATOM     89  H41   C A   4     -31.137  11.041  28.064  1.00  0.00     0.157 HD
ATOM     90  H42   C A   4     -31.434   9.501  28.835  1.00  0.00     0.157 HD
ATOM     91  C5    C A   4     -29.655  12.075  29.914  1.00  0.00     0.067 A 
ATOM     92  C2'   C A   4     -26.487  11.460  33.073  1.00  0.00     0.199 C 
ATOM     93  O2'   C A   4     -25.942  11.308  34.370  1.00  0.00    -0.388 OA
ATOM     94 'HO2   C A   4     -25.005  11.497  34.300  1.00  0.00     0.210 HD
ATOM     95  C3'   C A   4     -25.923  12.688  32.372  1.00  0.00     0.198 C 
ATOM     96  O3'   C A   4     -24.511  12.806  32.535  1.00  0.00    -0.279 OA
ATOM     97  P     T A   5     -23.539  12.573  31.274  1.00  0.00     0.408 P 
ATOM     98  OP1   T A   5     -22.155  12.899  31.705  1.00  0.00    -0.624 OA
ATOM     99  OP2   T A   5     -24.125  13.269  30.100  1.00  0.00    -0.624 OA
ATOM    100  O5'   T A   5     -23.622  11.002  31.005  1.00  0.00    -0.287 OA
ATOM    101  C5'   T A   5     -22.817  10.082  31.743  1.00  0.00     0.216 C 
ATOM    102  C4'   T A   5     -23.637   8.876  32.149  1.00  0.00     0.180 C 
ATOM    103  O4'   T A   5     -25.036   9.263  32.241  1.00  0.00    -0.353 OA
ATOM    104  C1'   T A   5     -25.857   8.228  31.727  1.00  0.00     0.264 C 
ATOM    105  N1    T A   5     -26.554   8.734  30.535  1.00  0.00    -0.280 N 
ATOM    106  C6    T A   5     -26.308   9.999  30.046  1.00  0.00     0.104 A 
ATOM    107  C2    T A   5     -27.469   7.899  29.917  1.00  0.00     0.331 A 
ATOM    108  O2    T A   5     -27.718   6.774  30.317  1.00  0.00    -0.246 OA
ATOM    109  N3    T A   5     -28.082   8.429  28.811  1.00  0.00    -0.275 N 
ATOM    110  H3    T A   5     -28.763   7.849  28.349  1.00  0.00     0.173 HD
ATOM    111  C4    T A   5     -27.884   9.679  28.273  1.00  0.00     0.250 A 
ATOM    112  O4    T A   5     -28.510  10.006  27.265  1.00  0.00    -0.268 OA
ATOM    113  C5    T A   5     -26.930  10.483  28.967  1.00  0.00     0.092 A 
ATOM    114  C2'   T A   5     -24.954   7.025  31.451  1.00  0.00     0.199 C 
ATOM    115  O2'   T A   5     -24.884   6.236  32.624  1.00  0.00    -0.388 OA
ATOM    116 'HO2   T A   5     -23.958   6.181  32.865  1.00  0.00     0.210 HD
ATOM    117  C3'   T A   5     -23.626   7.714  31.164  1.00  0.00     0.198 C 
ATOM    118  O3'   T A   5     -22.510   6.852  31.379  1.00  0.00    -0.279 OA
ATOM    119  P     C A   6     -21.417   6.647  30.216  1.00  0.00     0.408 P 
ATOM    120  OP1   C A   6     -20.265   5.928  30.818  1.00  0.00    -0.624 OA
ATOM    121  OP2   C A   6     -21.196   7.955  29.547  1.00  0.00    -0.624 OA
ATOM    122  O5'   C A   6     -22.138   5.672  29.178  1.00  0.00    -0.287 OA
ATOM    123  C5'   C A   6     -21.415   4.643  28.497  1.00  0.00     0.216 C 
ATOM    124  C4'   C A   6     -22.219   3.359  28.480  1.00  0.00     0.180 C 
ATOM    125  O4'   C A   6     -23.428   3.548  29.277  1.00  0.00    -0.353 OA
ATOM    126  C1'   C A   6     -24.553   3.096  28.545  1.00  0.00     0.264 C 
ATOM    127  N1    C A   6     -25.261   4.264  27.995  1.00  0.00    -0.278 N 
ATOM    128  C6    C A   6     -24.907   5.535  28.351  1.00  0.00     0.102 A 
ATOM    129  C2    C A   6     -26.295   4.050  27.085  1.00  0.00     0.352 A 
ATOM    130  O2    C A   6     -26.613   2.885  26.798  1.00  0.00    -0.244 OA
ATOM    131  N3    C A   6     -26.928   5.108  26.541  1.00  0.00    -0.177 NA
ATOM    132  C4    C A   6     -26.571   6.346  26.882  1.00  0.00     0.128 A 
ATOM    133  N4    C A   6     -27.221   7.356  26.305  1.00  0.00    -0.384 N 
ATOM    134  H41   C A   6     -26.997   8.317  26.520  1.00  0.00     0.157 HD
ATOM    135  H42   C A   6     -27.949   7.144  25.636  1.00  0.00     0.157 HD
ATOM    136  C5    C A   6     -25.532   6.598  27.825  1.00  0.00     0.067 A 
ATOM    137  C2'   C A   6     -24.004   2.173  27.463  1.00  0.00     0.199 C 
ATOM    138  O2'   C A   6     -23.732   0.905  28.032  1.00  0.00    -0.388 OA
ATOM    139 'HO2   C A   6     -22.784   0.783  27.999  1.00  0.00     0.210 HD
ATOM    140  C3'   C A   6     -22.725   2.916  27.110  1.00  0.00     0.198 C 
ATOM    141  O3'   C A   6     -21.799   2.085  26.416  1.00  0.00    -0.279 OA
ATOM    142  P     G A   7     -21.500   2.359  24.859  1.00  0.00     0.408 P 
ATOM    143  OP1   G A   7     -22.778   2.782  24.230  1.00  0.00    -0.624 OA
ATOM    144  OP2   G A   7     -20.318   3.253  24.791  1.00  0.00    -0.624 OA
ATOM    145  O5'   G A   7     -21.107   0.929  24.272  1.00  0.00    -0.287 OA
ATOM    146  C5'   G A   7     -21.403   0.574  22.917  1.00  0.00     0.216 C 
ATOM    147  C4'   G A   7     -20.127   0.477  22.110  1.00  0.00     0.180 C 
ATOM    148  O4'   G A   7     -20.357   1.084  20.807  1.00  0.00    -0.353 OA
ATOM    149  C1'   G A   7     -19.559   2.234  20.689  1.00  0.00     0.262 C 
ATOM    150  N9    G A   7     -20.350   3.372  21.149  1.00  0.00    -0.293 N 
ATOM    151  C4    G A   7     -21.602   3.702  20.702  1.00  0.00     0.187 A 
ATOM    152  N3    G A   7     -22.298   3.043  19.754  1.00  0.00    -0.044 NA
ATOM    153  C2    G A   7     -23.475   3.592  19.537  1.00  0.00     0.703 A 
ATOM    154  N2    G A   7     -24.283   3.056  18.626  1.00  0.00    -0.233 N 
ATOM    155  H21   G A   7     -23.977   2.240  18.117  1.00  0.00     0.174 HD
ATOM    156  H22   G A   7     -25.194   3.457  18.447  1.00  0.00     0.174 HD
ATOM    157  N1    G A   7     -23.942   4.700  20.198  1.00  0.00    -0.153 N 
ATOM    158  H1    G A   7     -24.861   5.039  19.957  1.00  0.00     0.187 HD
ATOM    159  C6    G A   7     -23.243   5.396  21.180  1.00  0.00     0.292 A 
ATOM    160  O6    G A   7     -23.759   6.383  21.717  1.00  0.00    -0.265 OA
ATOM    161  C5    G A   7     -21.968   4.818  21.422  1.00  0.00     0.173 A 
ATOM    162  N7    G A   7     -20.961   5.188  22.303  1.00  0.00    -0.234 NA
ATOM    163  C8    G A   7     -20.022   4.303  22.103  1.00  0.00     0.214 A 
ATOM    164  C2'   G A   7     -18.309   1.925  21.505  1.00  0.00     0.199 C 
ATOM    165  O2'   G A   7     -17.491   1.054  20.748  1.00  0.00    -0.388 OA
ATOM    166 'HO2   G A   7     -17.997   0.253  20.593  1.00  0.00     0.210 HD
ATOM    167  C3'   G A   7     -18.926   1.214  22.707  1.00  0.00     0.198 C 
ENDROOT
BRANCH 167 168
ATOM    168  O3'   G A   7     -18.036   0.298  23.334  1.00  0.00    -0.279 OA
BRANCH 168 169
ATOM    169  P     T A   8     -17.218   0.757  24.643  1.00  0.00     0.408 P 
ATOM    170  OP2   T A   8     -16.119  -0.216  24.871  1.00  0.00    -0.624 OA
ATOM    171  OP1   T A   8     -18.202   1.019  25.723  1.00  0.00    -0.624 OA
BRANCH 169 172
ATOM    172  O5'   T A   8     -16.566   2.148  24.223  1.00  0.00    -0.287 OA
BRANCH 172 173
ATOM    173  C5'   T A   8     -15.221   2.462  24.578  1.00  0.00     0.216 C 
BRANCH 173 174
ATOM    174  C4'   T A   8     -15.118   3.909  24.992  1.00  0.00     0.180 C 
ATOM    175  O4'   T A   8     -16.408   4.346  25.502  1.00  0.00    -0.353 OA
ATOM    176  C1'   T A   8     -16.219   5.176  26.635  1.00  0.00     0.264 C 
ATOM    177  C2'   T A   8     -14.720   5.457  26.747  1.00  0.00     0.199 C 
ATOM    178  N1    T A   8     -16.779   4.493  27.810  1.00  0.00    -0.280 N 
ATOM    179  C3'   T A   8     -14.141   4.193  26.124  1.00  0.00     0.198 C 
ATOM    180  C6    T A   8     -16.564   3.150  28.024  1.00  0.00     0.104 A 
ATOM    181  C2    T A   8     -17.529   5.243  28.698  1.00  0.00     0.331 A 
ATOM    182  C5    T A   8     -17.049   2.509  29.091  1.00  0.00     0.092 A 
ATOM    183  C4    T A   8     -17.828   3.215  30.057  1.00  0.00     0.250 A 
ATOM    184  N3    T A   8     -18.013   4.550  29.778  1.00  0.00    -0.275 N 
ATOM    185  O4    T A   8     -18.305   2.741  31.088  1.00  0.00    -0.268 OA
ATOM    186  H3    T A   8     -18.573   5.067  30.438  1.00  0.00     0.173 HD
ATOM    187  O2    T A   8     -17.747   6.432  28.543  1.00  0.00    -0.246 OA
BRANCH 177 188
ATOM    188  O2'   T A   8     -14.413   6.600  25.972  1.00  0.00    -0.388 OA
ATOM    189 'HO2   T A   8     -15.238   7.070  25.835  1.00  0.00     0.210 HD
ENDBRANCH 177 188
BRANCH 179 190
ATOM    190  O3'   T A   8     -12.815   4.376  25.632  1.00  0.00    -0.279 OA
BRANCH 190 191
ATOM    191  P     G A   9     -11.555   4.144  26.605  1.00  0.00     0.408 P 
ATOM    192  OP1   G A   9     -10.574   3.313  25.861  1.00  0.00    -0.624 OA
ATOM    193  OP2   G A   9     -12.031   3.696  27.939  1.00  0.00    -0.624 OA
BRANCH 191 194
ATOM    194  O5'   G A   9     -10.931   5.601  26.766  1.00  0.00    -0.287 OA
BRANCH 194 195
ATOM    195  C5'   G A   9     -11.406   6.494  27.773  1.00  0.00     0.216 C 
BRANCH 195 196
ATOM    196  C4'   G A   9     -10.270   6.920  28.672  1.00  0.00     0.180 C 
ATOM    197  O4'   G A   9      -9.603   5.740  29.191  1.00  0.00    -0.353 OA
ATOM    198  C1'   G A   9      -8.222   6.012  29.357  1.00  0.00     0.262 C 
ATOM    199  C2'   G A   9      -7.979   7.464  28.941  1.00  0.00     0.199 C 
ATOM    200  N9    G A   9      -7.465   5.051  28.563  1.00  0.00    -0.293 N 
ATOM    201  C3'   G A   9      -9.153   7.703  28.000  1.00  0.00     0.198 C 
ATOM    202  O3'   G A   9      -9.479   9.086  27.877  1.00  0.00    -0.279 OA
ATOM    203  P     G A  10      -9.075   9.884  26.539  1.00  0.00     0.408 P 
ATOM    204  OP2   G A  10      -9.742   9.231  25.385  1.00  0.00    -0.624 OA
ATOM    205  OP1   G A  10      -9.313  11.327  26.804  1.00  0.00    -0.624 OA
ATOM    206  O5'   G A  10      -7.503   9.655  26.407  1.00  0.00    -0.287 OA
ATOM    207  C8    G A   9      -7.646   4.744  27.237  1.00  0.00     0.214 A 
ATOM    208  C4    G A   9      -6.419   4.275  29.000  1.00  0.00     0.187 A 
ATOM    209  N7    G A   9      -6.808   3.845  26.796  1.00  0.00    -0.234 NA
ATOM    210  C5    G A   9      -6.024   3.541  27.903  1.00  0.00     0.173 A 
ATOM    211  C6    G A   9      -4.941   2.632  28.045  1.00  0.00     0.292 A 
ATOM    212  N1    G A   9      -4.436   2.637  29.340  1.00  0.00    -0.153 N 
ATOM    213  O6    G A   9      -4.437   1.892  27.195  1.00  0.00    -0.265 OA
ATOM    214  H1    G A   9      -3.663   2.018  29.527  1.00  0.00     0.187 HD
ATOM    215  C2    G A   9      -4.908   3.413  30.368  1.00  0.00     0.703 A 
ATOM    216  N3    G A   9      -5.910   4.263  30.252  1.00  0.00    -0.044 NA
ATOM    217  N2    G A   9      -4.293   3.274  31.544  1.00  0.00    -0.233 N 
ATOM    218  H22   G A   9      -3.529   2.624  31.658  1.00  0.00     0.174 HD
ATOM    219  H21   G A   9      -4.613   3.828  32.325  1.00  0.00     0.174 HD
BRANCH 199 220
ATOM    220  O2'   G A   9      -8.069   8.290  30.087  1.00  0.00    -0.388 OA
ATOM    221 'HO2   G A   9      -7.167   8.473  30.352  1.00  0.00     0.210 HD
ENDBRANCH 199 220
BRANCH 206 222
ATOM    222  C5'   G A  10      -6.591  10.255  27.327  1.00  0.00     0.216 C 
BRANCH 222 223
ATOM    223  C4'   G A  10      -5.707  11.257  26.617  1.00  0.00     0.180 C 
ATOM    224  O4'   G A  10      -6.063  12.601  27.031  1.00  0.00    -0.353 OA
ATOM    225  C1'   G A  10      -4.912  13.428  27.003  1.00  0.00     0.262 C 
ATOM    226  C2'   G A  10      -3.722  12.562  26.582  1.00  0.00     0.199 C 
ATOM    227  C3'   G A  10      -4.221  11.164  26.933  1.00  0.00     0.198 C 
BRANCH 225 228
ATOM    228  N9    G A  10      -4.755  14.046  28.317  1.00  0.00    -0.293 N 
ATOM    229  C4    G A  10      -4.225  15.287  28.580  1.00  0.00     0.187 A 
ATOM    230  N3    G A  10      -3.751  16.156  27.663  1.00  0.00    -0.044 NA
ATOM    231  C5    G A  10      -4.288  15.431  29.951  1.00  0.00     0.173 A 
ATOM    232  C2    G A  10      -3.305  17.267  28.221  1.00  0.00     0.703 A 
ATOM    233  N1    G A  10      -3.323  17.511  29.571  1.00  0.00    -0.153 N 
ATOM    234  N2    G A  10      -2.798  18.237  27.455  1.00  0.00    -0.233 N 
ATOM    235  C6    G A  10      -3.805  16.633  30.534  1.00  0.00     0.292 A 
ATOM    236  H1    G A  10      -2.958  18.396  29.885  1.00  0.00     0.187 HD
ATOM    237  O6    G A  10      -3.772  16.953  31.730  1.00  0.00    -0.265 OA
ATOM    238  H21   G A  10      -2.760  18.107  26.455  1.00  0.00     0.174 HD
ATOM    239  H22   G A  10      -2.457  19.092  27.872  1.00  0.00     0.174 HD
ATOM    240  N7    G A  10      -4.846  14.303  30.539  1.00  0.00    -0.234 NA
ATOM    241  C8    G A  10      -5.106  13.512  29.534  1.00  0.00     0.214 A 
ENDBRANCH 225 228
BRANCH 226 242
ATOM    242  O2'   G A  10      -3.535  12.699  25.185  1.00  0.00    -0.388 OA
ATOM    243 'HO2   G A  10      -3.128  13.554  25.047  1.00  0.00     0.210 HD
ENDBRANCH 226 242
BRANCH 227 244
ATOM    244  O3'   G A  10      -3.587  10.145  26.161  1.00  0.00    -0.279 OA
BRANCH 244 245
ATOM    245  P     C A  11      -4.317   9.557  24.853  1.00  0.00     0.408 P 
ATOM    246  OP2   C A  11      -5.053   8.324  25.231  1.00  0.00    -0.624 OA
ATOM    247  OP1   C A  11      -5.051  10.683  24.218  1.00  0.00    -0.624 OA
BRANCH 245 248
ATOM    248  O5'   C A  11      -3.113   9.146  23.894  1.00  0.00    -0.287 OA
BRANCH 248 249
ATOM    249  C5'   C A  11      -2.166  10.116  23.451  1.00  0.00     0.216 C 
BRANCH 249 250
ATOM    250  C4'   C A  11      -1.747   9.826  22.029  1.00  0.00     0.180 C 
ATOM    251  O4'   C A  11      -1.337   8.438  21.932  1.00  0.00    -0.353 OA
ATOM    252  C1'   C A  11      -1.665   7.936  20.648  1.00  0.00     0.264 C 
ATOM    253  C2'   C A  11      -2.336   9.062  19.857  1.00  0.00     0.199 C 
ATOM    254  C3'   C A  11      -2.840   9.963  20.980  1.00  0.00     0.198 C 
BRANCH 252 255
ATOM    255  N1    C A  11      -2.518   6.748  20.815  1.00  0.00    -0.278 N 
ATOM    256  C2    C A  11      -1.911   5.493  20.886  1.00  0.00     0.352 A 
ATOM    257  O2    C A  11      -0.678   5.418  20.814  1.00  0.00    -0.244 OA
ATOM    258  N3    C A  11      -2.680   4.392  21.032  1.00  0.00    -0.177 NA
ATOM    259  C4    C A  11      -4.005   4.513  21.109  1.00  0.00     0.128 A 
ATOM    260  N4    C A  11      -4.721   3.398  21.254  1.00  0.00    -0.384 N 
ATOM    261  C5    C A  11      -4.654   5.781  21.043  1.00  0.00     0.067 A 
ATOM    262  H41   C A  11      -5.727   3.442  21.317  1.00  0.00     0.157 HD
ATOM    263  H42   C A  11      -4.249   2.506  21.300  1.00  0.00     0.157 HD
ATOM    264  C6    C A  11      -3.878   6.862  20.897  1.00  0.00     0.102 A 
ENDBRANCH 252 255
BRANCH 253 265
ATOM    265  O2'   C A  11      -1.347   9.713  19.082  1.00  0.00    -0.388 OA
ATOM    266 'HO2   C A  11      -0.894  10.324  19.664  1.00  0.00     0.210 HD
ENDBRANCH 253 265
BRANCH 254 267
ATOM    267  O3'   C A  11      -3.001  11.316  20.561  1.00  0.00    -0.279 OA
BRANCH 267 268
ATOM    268  P     G A  12      -1.717  12.277  20.442  1.00  0.00     0.408 P 
ATOM    269  OP2   G A  12      -0.521  11.532  20.917  1.00  0.00    -0.624 OA
ATOM    270  OP1   G A  12      -1.727  12.849  19.072  1.00  0.00    -0.624 OA
BRANCH 268 271
ATOM    271  O5'   G A  12      -2.025  13.460  21.466  1.00  0.00    -0.287 OA
BRANCH 271 272
ATOM    272  C5'   G A  12      -2.839  14.572  21.091  1.00  0.00     0.216 C 
BRANCH 272 273
ATOM    273  C4'   G A  12      -4.030  14.679  22.016  1.00  0.00     0.180 C 
ATOM    274  O4'   G A  12      -3.577  15.144  23.315  1.00  0.00    -0.353 OA
ATOM    275  C1'   G A  12      -4.553  15.999  23.884  1.00  0.00     0.262 C 
ATOM    276  N9    G A  12      -3.952  17.312  24.097  1.00  0.00    -0.293 N 
ATOM    277  C2'   G A  12      -5.754  16.025  22.938  1.00  0.00     0.199 C 
ATOM    278  C4    G A  12      -4.589  18.434  24.569  1.00  0.00     0.187 A 
ATOM    279  C8    G A  12      -2.648  17.676  23.865  1.00  0.00     0.214 A 
ATOM    280  N3    G A  12      -5.888  18.518  24.923  1.00  0.00    -0.044 NA
ATOM    281  C5    G A  12      -3.624  19.420  24.593  1.00  0.00     0.173 A 
ATOM    282  C2    G A  12      -6.208  19.728  25.340  1.00  0.00     0.703 A 
ATOM    283  N1    G A  12      -5.328  20.778  25.402  1.00  0.00    -0.153 N 
ATOM    284  N2    G A  12      -7.458  19.984  25.732  1.00  0.00    -0.233 N 
ATOM    285  C6    G A  12      -3.987  20.718  25.040  1.00  0.00     0.292 A 
ATOM    286  H1    G A  12      -5.677  21.663  25.736  1.00  0.00     0.187 HD
ATOM    287  O6    G A  12      -3.281  21.729  25.131  1.00  0.00    -0.265 OA
ATOM    288  H22   G A  12      -7.713  20.902  26.061  1.00  0.00     0.174 HD
ATOM    289  H21   G A  12      -8.146  19.244  25.706  1.00  0.00     0.174 HD
ATOM    290  N7    G A  12      -2.405  18.927  24.147  1.00  0.00    -0.234 NA
ATOM    291  C3'   G A  12      -5.091  15.690  21.606  1.00  0.00     0.198 C 
BRANCH 277 292
ATOM    292  O2'   G A  12      -6.661  15.012  23.329  1.00  0.00    -0.388 OA
ATOM    293 'HO2   G A  12      -7.186  14.796  22.558  1.00  0.00     0.210 HD
ENDBRANCH 277 292
BRANCH 291 294
ATOM    294  O3'   G A  12      -6.010  15.139  20.665  1.00  0.00    -0.279 OA
BRANCH 294 295
ATOM    295  P     T A  13      -6.456  16.003  19.384  1.00  0.00     0.408 P 
ATOM    296  OP2   T A  13      -5.232  16.434  18.661  1.00  0.00    -0.624 OA
ATOM    297  OP1   T A  13      -7.498  15.228  18.663  1.00  0.00    -0.624 OA
BRANCH 295 298
ATOM    298  O5'   T A  13      -7.141  17.299  20.009  1.00  0.00    -0.287 OA
BRANCH 298 299
ATOM    299  C5'   T A  13      -8.331  17.845  19.444  1.00  0.00     0.216 C 
BRANCH 299 300
ATOM    300  C4'   T A  13      -8.029  19.155  18.753  1.00  0.00     0.180 C 
ATOM    301  O4'   T A  13      -9.216  19.997  18.801  1.00  0.00    -0.353 OA
ATOM    302  C1'   T A  13      -8.841  21.334  19.086  1.00  0.00     0.264 C 
ATOM    303  N1    T A  13      -9.341  21.685  20.424  1.00  0.00    -0.280 N 
ATOM    304  C2'   T A  13      -7.321  21.407  18.964  1.00  0.00     0.199 C 
ATOM    305  C6    T A  13      -9.775  20.718  21.302  1.00  0.00     0.104 A 
ATOM    306  C2    T A  13      -9.355  23.022  20.772  1.00  0.00     0.331 A 
ATOM    307  C5    T A  13     -10.226  21.014  22.525  1.00  0.00     0.092 A 
ATOM    308  C4    T A  13     -10.269  22.375  22.960  1.00  0.00     0.250 A 
ATOM    309  O4    T A  13     -10.663  22.773  24.056  1.00  0.00    -0.268 OA
ATOM    310  N3    T A  13      -9.822  23.287  22.034  1.00  0.00    -0.275 N 
ATOM    311  H3    T A  13      -9.835  24.258  22.307  1.00  0.00     0.173 HD
ATOM    312  O2    T A  13      -8.985  23.907  20.023  1.00  0.00    -0.246 OA
ATOM    313  C3'   T A  13      -6.935  19.999  19.395  1.00  0.00     0.198 C 
ATOM    314  O2'   T A  13      -6.982  21.639  17.610  1.00  0.00    -0.388 OA
ATOM    315  O3'   T A  13      -5.638  19.626  18.938  1.00  0.00    -0.279 OA
ATOM    316  P     C A  14      -4.365  19.817  19.902  1.00  0.00     0.408 P 
ATOM    317  OP2   C A  14      -4.745  19.392  21.273  1.00  0.00    -0.624 OA
ATOM    318  OP1   C A  14      -3.203  19.180  19.232  1.00  0.00    -0.624 OA
ATOM    319  O5'   C A  14      -4.127  21.393  19.920  1.00  0.00    -0.287 OA
ATOM    320  C5'   C A  14      -3.644  22.076  18.763  1.00  0.00     0.216 C 
ATOM    321  C4'   C A  14      -3.633  23.569  19.004  1.00  0.00     0.180 C 
ATOM    322  O4'   C A  14      -4.968  24.001  19.383  1.00  0.00    -0.353 OA
ATOM    323  C3'   C A  14      -2.751  24.048  20.147  1.00  0.00     0.198 C 
ATOM    324  C1'   C A  14      -4.879  25.050  20.332  1.00  0.00     0.264 C 
ATOM    325  N1    C A  14      -5.549  24.617  21.570  1.00  0.00    -0.278 N 
ATOM    326  C2'   C A  14      -3.397  25.376  20.519  1.00  0.00     0.199 C 
ATOM    327  C6    C A  14      -5.831  23.297  21.790  1.00  0.00     0.102 A 
ATOM    328  C2    C A  14      -5.897  25.580  22.522  1.00  0.00     0.352 A 
ATOM    329  C5    C A  14      -6.447  22.900  22.910  1.00  0.00     0.067 A 
ATOM    330  C4    C A  14      -6.792  23.904  23.862  1.00  0.00     0.128 A 
ATOM    331  N3    C A  14      -6.517  25.194  23.659  1.00  0.00    -0.177 NA
ATOM    332  N4    C A  14      -7.407  23.571  24.995  1.00  0.00    -0.384 N 
ATOM    333  H42   C A  14      -7.643  24.291  25.664  1.00  0.00     0.157 HD
ATOM    334  H41   C A  14      -7.634  22.606  25.189  1.00  0.00     0.157 HD
ATOM    335  O2    C A  14      -5.627  26.770  22.302  1.00  0.00    -0.244 OA
ATOM    336  O2'   C A  14      -3.040  26.396  19.604  1.00  0.00    -0.388 OA
ATOM    337 'HO2   C A  14      -2.277  26.081  19.118  1.00  0.00     0.210 HD
ATOM    338  O3'   C A  14      -1.394  24.199  19.736  1.00  0.00    -0.279 OA
ATOM    339  P     T A  15      -0.225  24.249  20.841  1.00  0.00     0.408 P 
ATOM    340  OP2   T A  15      -0.473  23.177  21.838  1.00  0.00    -0.624 OA
ATOM    341  O5'   T A  15      -0.434  25.655  21.561  1.00  0.00    -0.287 OA
ATOM    342  OP1   T A  15       1.070  24.288  20.112  1.00  0.00    -0.624 OA
ATOM    343  C5'   T A  15      -0.241  26.880  20.852  1.00  0.00     0.216 C 
ATOM    344  C4'   T A  15      -0.254  28.046  21.812  1.00  0.00     0.180 C 
ATOM    345  C3'   T A  15       0.536  27.848  23.099  1.00  0.00     0.198 C 
ATOM    346  O4'   T A  15      -1.619  28.277  22.260  1.00  0.00    -0.353 OA
ATOM    347  O3'   T A  15       1.918  28.148  22.922  1.00  0.00    -0.279 OA
ATOM    348  C2'   T A  15      -0.158  28.810  24.053  1.00  0.00     0.199 C 
ATOM    349  P     G A  16       3.018  27.407  23.831  1.00  0.00     0.408 P 
ATOM    350  O5'   G A  16       2.828  28.057  25.274  1.00  0.00    -0.287 OA
ATOM    351  OP2   G A  16       2.666  25.966  23.920  1.00  0.00    -0.624 OA
ATOM    352  OP1   G A  16       4.354  27.803  23.318  1.00  0.00    -0.624 OA
ATOM    353  C5'   G A  16       3.385  29.333  25.583  1.00  0.00     0.216 C 
ATOM    354  C4'   G A  16       2.835  29.842  26.895  1.00  0.00     0.180 C 
ATOM    355  C3'   G A  16       3.306  29.104  28.140  1.00  0.00     0.198 C 
ATOM    356  O4'   G A  16       1.394  29.666  26.914  1.00  0.00    -0.353 OA
ATOM    357  C2'   G A  16       2.199  29.417  29.140  1.00  0.00     0.199 C 
ATOM    358  O3'   G A  16       4.581  29.567  28.578  1.00  0.00    -0.279 OA
ATOM    359  O2'   G A  16       2.347  30.720  29.673  1.00  0.00    -0.388 OA
ATOM    360  C1'   G A  16       0.965  29.396  28.238  1.00  0.00     0.262 C 
ATOM    361 'HO2   G A  16       3.272  30.952  29.579  1.00  0.00     0.210 HD
ATOM    362  N9    G A  16       0.261  28.116  28.243  1.00  0.00    -0.293 N 
ATOM    363  C4    G A  16      -0.524  27.621  29.257  1.00  0.00     0.187 A 
ATOM    364  C8    G A  16       0.246  27.171  27.247  1.00  0.00     0.214 A 
ATOM    365  N3    G A  16      -0.778  28.232  30.434  1.00  0.00    -0.044 NA
ATOM    366  C5    G A  16      -0.977  26.400  28.807  1.00  0.00     0.173 A 
ATOM    367  C2    G A  16      -1.568  27.507  31.204  1.00  0.00     0.703 A 
ATOM    368  N1    G A  16      -2.073  26.282  30.851  1.00  0.00    -0.153 N 
ATOM    369  N2    G A  16      -1.918  27.963  32.409  1.00  0.00    -0.233 N 
ATOM    370  H1    G A  16      -2.670  25.812  31.515  1.00  0.00     0.187 HD
ATOM    371  C6    G A  16      -1.825  25.634  29.647  1.00  0.00     0.292 A 
ATOM    372  O6    G A  16      -2.332  24.528  29.429  1.00  0.00    -0.265 OA
ATOM    373  H22   G A  16      -2.519  27.417  33.010  1.00  0.00     0.174 HD
ATOM    374  H21   G A  16      -1.573  28.860  32.717  1.00  0.00     0.174 HD
ATOM    375  N7    G A  16      -0.484  26.129  27.536  1.00  0.00    -0.234 NA
ATOM    376  P     A A  17       5.521  28.606  29.464  1.00  0.00     0.408 P 
ATOM    377  O5'   A A  17       4.689  28.377  30.803  1.00  0.00    -0.287 OA
ATOM    378  OP1   A A  17       6.744  29.376  29.803  1.00  0.00    -0.624 OA
ATOM    379  OP2   A A  17       5.646  27.301  28.766  1.00  0.00    -0.624 OA
ATOM    380  C5'   A A  17       4.446  29.451  31.711  1.00  0.00     0.216 C 
ATOM    381  C4'   A A  17       3.858  28.925  32.999  1.00  0.00     0.180 C 
ATOM    382  O4'   A A  17       2.468  28.571  32.778  1.00  0.00    -0.353 OA
ATOM    383  C3'   A A  17       4.480  27.645  33.535  1.00  0.00     0.198 C 
ATOM    384  C1'   A A  17       2.121  27.473  33.604  1.00  0.00     0.262 C 
ATOM    385  C2'   A A  17       3.364  27.072  34.402  1.00  0.00     0.199 C 
ATOM    386  N9    A A  17       1.598  26.406  32.752  1.00  0.00    -0.294 N 
ATOM    387  O2'   A A  17       3.317  27.715  35.662  1.00  0.00    -0.388 OA
ATOM    388 'HO2   A A  17       4.165  28.144  35.783  1.00  0.00     0.210 HD
ATOM    389  C4    A A  17       0.747  25.400  33.144  1.00  0.00     0.167 A 
ATOM    390  C8    A A  17       1.840  26.192  31.418  1.00  0.00     0.214 A 
ATOM    391  N3    A A  17       0.237  25.197  34.370  1.00  0.00    -0.222 NA
ATOM    392  C5    A A  17       0.519  24.637  32.013  1.00  0.00     0.149 A 
ATOM    393  C2    A A  17      -0.555  24.127  34.377  1.00  0.00     0.237 A 
ATOM    394  N1    A A  17      -0.870  23.298  33.372  1.00  0.00    -0.222 NA
ATOM    395  C6    A A  17      -0.337  23.530  32.153  1.00  0.00     0.155 A 
ATOM    396  N6    A A  17      -0.651  22.704  31.155  1.00  0.00    -0.382 N 
ATOM    397  H62   A A  17      -1.272  21.924  31.320  1.00  0.00     0.157 HD
ATOM    398  H61   A A  17      -0.265  22.858  30.235  1.00  0.00     0.157 HD
ATOM    399  N7    A A  17       1.217  25.149  30.927  1.00  0.00    -0.236 NA
ATOM    400  O3'   A A  17       5.665  27.913  34.281  1.00  0.00    -0.279 OA
ATOM    401  P     C A  18       6.898  26.881  34.225  1.00  0.00     0.408 P 
ATOM    402  O5'   C A  18       6.350  25.581  34.966  1.00  0.00    -0.287 OA
ATOM    403  OP2   C A  18       7.152  26.527  32.804  1.00  0.00    -0.624 OA
ATOM    404  OP1   C A  18       7.994  27.454  35.045  1.00  0.00    -0.624 OA
ATOM    405  C5'   C A  18       5.868  25.645  36.308  1.00  0.00     0.216 C 
ATOM    406  C4'   C A  18       5.098  24.390  36.645  1.00  0.00     0.180 C 
ATOM    407  C3'   C A  18       5.823  23.084  36.347  1.00  0.00     0.198 C 
ATOM    408  O4'   C A  18       3.897  24.347  35.827  1.00  0.00    -0.353 OA
ATOM    409  C2'   C A  18       4.679  22.116  36.073  1.00  0.00     0.199 C 
ATOM    410  O3'   C A  18       6.627  22.675  37.452  1.00  0.00    -0.279 OA
ATOM    411  C1'   C A  18       3.675  23.028  35.366  1.00  0.00     0.264 C 
ATOM    412  O2'   C A  18       4.104  21.654  37.282  1.00  0.00    -0.388 OA
ATOM    413  N1    C A  18       3.797  23.024  33.900  1.00  0.00    -0.278 N 
ATOM    414  C2    C A  18       2.813  22.384  33.141  1.00  0.00     0.352 A 
ATOM    415  C6    C A  18       4.854  23.634  33.282  1.00  0.00     0.102 A 
ATOM    416  O2    C A  18       1.862  21.844  33.724  1.00  0.00    -0.244 OA
ATOM    417  N3    C A  18       2.921  22.370  31.794  1.00  0.00    -0.177 NA
ATOM    418  C4    C A  18       3.958  22.965  31.203  1.00  0.00     0.128 A 
ATOM    419  C5    C A  18       4.973  23.629  31.949  1.00  0.00     0.067 A 
ATOM    420  N4    C A  18       4.023  22.922  29.873  1.00  0.00    -0.384 N 
ATOM    421  H41   C A  18       4.794  23.359  29.388  1.00  0.00     0.157 HD
ATOM    422  H42   C A  18       3.298  22.450  29.352  1.00  0.00     0.157 HD
ATOM    423 'HO2   C A  18       4.735  21.845  37.975  1.00  0.00     0.210 HD
ATOM    424  P     T A  19       8.108  22.099  37.196  1.00  0.00     0.408 P 
ATOM    425  O5'   T A  19       7.875  20.548  36.918  1.00  0.00    -0.287 OA
ATOM    426  OP1   T A  19       8.858  22.230  38.471  1.00  0.00    -0.624 OA
ATOM    427  OP2   T A  19       8.653  22.717  35.959  1.00  0.00    -0.624 OA
ATOM    428  C1'   T A  15      -1.617  28.633  23.633  1.00  0.00     0.264 C 
ATOM    429  O2'   T A  15       0.228  30.150  23.807  1.00  0.00    -0.388 OA
ATOM    430  N1    T A  15      -2.320  27.584  24.386  1.00  0.00    -0.280 N 
ATOM    431  C2    T A  15      -2.957  27.948  25.558  1.00  0.00     0.331 A 
ATOM    432  C6    T A  15      -2.341  26.279  23.945  1.00  0.00     0.104 A 
ATOM    433  N3    T A  15      -3.587  26.925  26.217  1.00  0.00    -0.275 N 
ATOM    434  O2    T A  15      -2.965  29.089  25.982  1.00  0.00    -0.246 OA
ATOM    435  H3    T A  15      -4.051  27.167  27.081  1.00  0.00     0.173 HD
ATOM    436  C4    T A  15      -3.650  25.606  25.834  1.00  0.00     0.250 A 
ATOM    437  O4    T A  15      -4.269  24.803  26.534  1.00  0.00    -0.268 OA
ATOM    438  C5    T A  15      -2.970  25.307  24.613  1.00  0.00     0.092 A 
ATOM    439 'HO2   T A  15       1.000  30.318  24.349  1.00  0.00     0.210 HD
ATOM    440 'HO2   T A  13      -6.228  21.082  17.415  1.00  0.00     0.210 HD
BRANCH 425 441
ATOM    441  C5'   T A  19       8.900  19.744  36.335  1.00  0.00     0.216 C 
BRANCH 441 442
ATOM    442  C4'   T A  19       8.300  18.747  35.372  1.00  0.00     0.180 C 
ATOM    443  O4'   T A  19       9.370  18.153  34.586  1.00  0.00    -0.353 OA
ATOM    444  C1'   T A  19       9.174  16.755  34.481  1.00  0.00     0.264 C 
ATOM    445  C2'   T A  19       7.785  16.437  35.033  1.00  0.00     0.199 C 
ATOM    446  C3'   T A  19       7.585  17.573  36.030  1.00  0.00     0.198 C 
BRANCH 444 447
ATOM    447  N1    T A  19      10.271  16.082  35.193  1.00  0.00    -0.280 N 
ATOM    448  C2    T A  19      11.515  16.683  35.172  1.00  0.00     0.331 A 
ATOM    449  O2    T A  19      11.738  17.727  34.585  1.00  0.00    -0.246 OA
ATOM    450  N3    T A  19      12.493  16.015  35.862  1.00  0.00    -0.275 N 
ATOM    451  H3    T A  19      13.406  16.441  35.870  1.00  0.00     0.173 HD
ATOM    452  C4    T A  19      12.360  14.831  36.552  1.00  0.00     0.250 A 
ATOM    453  O4    T A  19      13.334  14.358  37.135  1.00  0.00    -0.268 OA
ATOM    454  C5    T A  19      11.046  14.270  36.521  1.00  0.00     0.092 A 
ATOM    455  C6    T A  19      10.067  14.896  35.861  1.00  0.00     0.104 A 
ENDBRANCH 444 447
BRANCH 445 456
ATOM    456  O2'   T A  19       6.849  16.511  33.974  1.00  0.00    -0.388 OA
ATOM    457 'HO2   T A  19       6.265  17.243  34.178  1.00  0.00     0.210 HD
ENDBRANCH 445 456
BRANCH 446 458
ATOM    458  O3'   T A  19       6.207  17.868  36.241  1.00  0.00    -0.279 OA
BRANCH 458 459
ATOM    459  P     C A  20       5.600  17.825  37.730  1.00  0.00     0.408 P 
ATOM    460  OP2   C A  20       6.594  17.182  38.627  1.00  0.00    -0.624 OA
ATOM    461  OP1   C A  20       5.105  19.190  38.043  1.00  0.00    -0.624 OA
BRANCH 459 462
ATOM    462  O5'   C A  20       4.341  16.860  37.597  1.00  0.00    -0.287 OA
BRANCH 462 463
ATOM    463  C5'   C A  20       4.116  15.806  38.531  1.00  0.00     0.216 C 
ATOM    464  C4'   C A  20       2.818  15.101  38.213  1.00  0.00     0.180 C 
ATOM    465  C3'   C A  20       2.517  14.940  36.727  1.00  0.00     0.198 C 
ATOM    466  O4'   C A  20       1.717  15.894  38.736  1.00  0.00    -0.353 OA
ATOM    467  C2'   C A  20       0.994  14.934  36.692  1.00  0.00     0.199 C 
ATOM    468  C1'   C A  20       0.670  15.953  37.784  1.00  0.00     0.264 C 
ATOM    469  N1    C A  20       0.563  17.338  37.295  1.00  0.00    -0.278 N 
ATOM    470  C2    C A  20      -0.706  17.869  37.044  1.00  0.00     0.352 A 
ATOM    471  C6    C A  20       1.681  18.096  37.089  1.00  0.00     0.102 A 
ATOM    472  O2    C A  20      -1.702  17.160  37.240  1.00  0.00    -0.244 OA
ATOM    473  N3    C A  20      -0.812  19.140  36.594  1.00  0.00    -0.177 NA
ATOM    474  C4    C A  20       0.285  19.871  36.395  1.00  0.00     0.128 A 
ATOM    475  C5    C A  20       1.590  19.355  36.644  1.00  0.00     0.067 A 
ATOM    476  N4    C A  20       0.129  21.118  35.952  1.00  0.00    -0.384 N 
ATOM    477  H42   C A  20      -0.803  21.469  35.782  1.00  0.00     0.157 HD
ATOM    478  H41   C A  20       0.933  21.705  35.789  1.00  0.00     0.157 HD
BRANCH 465 479
ATOM    479  O3'   C A  20       3.080  13.738  36.209  1.00  0.00    -0.279 OA
BRANCH 479 480
ATOM    480  P     C A  21       4.217  13.812  35.075  1.00  0.00     0.408 P 
ATOM    481  OP2   C A  21       3.901  12.806  34.026  1.00  0.00    -0.624 OA
ATOM    482  OP1   C A  21       4.373  15.239  34.697  1.00  0.00    -0.624 OA
BRANCH 480 483
ATOM    483  O5'   C A  21       5.542  13.352  35.830  1.00  0.00    -0.287 OA
BRANCH 483 484
ATOM    484  C5'   C A  21       6.650  12.816  35.111  1.00  0.00     0.216 C 
BRANCH 484 485
ATOM    485  C4'   C A  21       7.375  11.797  35.956  1.00  0.00     0.180 C 
ATOM    486  C3'   C A  21       7.683  10.478  35.259  1.00  0.00     0.198 C 
ATOM    487  O3'   C A  21       8.917  10.540  34.548  1.00  0.00    -0.279 OA
ATOM    488  C2'   C A  21       7.729   9.493  36.420  1.00  0.00     0.199 C 
ATOM    489  P     A A  22       9.023   9.904  33.075  1.00  0.00     0.408 P 
ATOM    490  OP2   A A  22       7.911  10.443  32.252  1.00  0.00    -0.624 OA
ATOM    491  O5'   A A  22       8.766   8.349  33.308  1.00  0.00    -0.287 OA
ATOM    492  OP1   A A  22      10.425  10.079  32.618  1.00  0.00    -0.624 OA
ATOM    493  C5'   A A  22       9.669   7.564  34.084  1.00  0.00     0.216 C 
ATOM    494  C4'   A A  22       9.152   6.150  34.220  1.00  0.00     0.180 C 
ATOM    495  C3'   A A  22       8.584   5.535  32.948  1.00  0.00     0.198 C 
ATOM    496  O4'   A A  22       8.037   6.142  35.156  1.00  0.00    -0.353 OA
ATOM    497  O3'   A A  22       9.602   4.945  32.145  1.00  0.00    -0.279 OA
ATOM    498  C2'   A A  22       7.606   4.507  33.498  1.00  0.00     0.199 C 
ATOM    499  P     G A  23       9.459   4.953  30.543  1.00  0.00     0.408 P 
ATOM    500  OP2   G A  23       9.202   6.347  30.099  1.00  0.00    -0.624 OA
ATOM    501  OP1   G A  23      10.624   4.213  29.995  1.00  0.00    -0.624 OA
ATOM    502  C1'   A A  22       7.019   5.277  34.679  1.00  0.00     0.262 C 
ATOM    503  O2'   A A  22       8.284   3.366  33.987  1.00  0.00    -0.388 OA
ATOM    504  N9    A A  22       5.853   6.088  34.329  1.00  0.00    -0.294 N 
ATOM    505  C4    A A  22       4.574   5.633  34.120  1.00  0.00     0.167 A 
ATOM    506  C8    A A  22       5.801   7.447  34.141  1.00  0.00     0.214 A 
ATOM    507  N3    A A  22       4.138   4.363  34.192  1.00  0.00    -0.222 NA
ATOM    508  C5    A A  22       3.820   6.751  33.814  1.00  0.00     0.149 A 
ATOM    509  C2    A A  22       2.836   4.298  33.924  1.00  0.00     0.237 A 
ATOM    510  N1    A A  22       1.984   5.284  33.617  1.00  0.00    -0.222 NA
ATOM    511  C6    A A  22       2.454   6.547  33.552  1.00  0.00     0.155 A 
ATOM    512  N6    A A  22       1.606   7.529  33.246  1.00  0.00    -0.382 N 
ATOM    513  H61   A A  22       1.937   8.481  33.193  1.00  0.00     0.157 HD
ATOM    514  H62   A A  22       0.635   7.316  33.068  1.00  0.00     0.157 HD
ATOM    515  N7    A A  22       4.608   7.893  33.833  1.00  0.00    -0.236 NA
ATOM    516 'HO2   A A  22       9.129   3.338  33.538  1.00  0.00     0.210 HD
ATOM    517  C1'   C A  21       6.609  10.035  37.308  1.00  0.00     0.264 C 
ATOM    518  O2'   C A  21       8.953   9.587  37.123  1.00  0.00    -0.388 OA
ATOM    519  N1    C A  21       5.289   9.444  37.029  1.00  0.00    -0.278 N 
ATOM    520  O4'   C A  21       6.530  11.431  37.082  1.00  0.00    -0.353 OA
ATOM    521  C6    C A  21       4.339  10.142  36.335  1.00  0.00     0.102 A 
ATOM    522  C2    C A  21       5.018   8.150  37.483  1.00  0.00     0.352 A 
ATOM    523  C5    C A  21       3.139   9.608  36.075  1.00  0.00     0.067 A 
ATOM    524  C4    C A  21       2.894   8.288  36.551  1.00  0.00     0.128 A 
ATOM    525  N4    C A  21       1.719   7.701  36.324  1.00  0.00    -0.384 N 
ATOM    526  N3    C A  21       3.812   7.598  37.229  1.00  0.00    -0.177 NA
ATOM    527  H41   C A  21       0.998   8.189  35.814  1.00  0.00     0.157 HD
ATOM    528  H42   C A  21       1.560   6.764  36.664  1.00  0.00     0.157 HD
ATOM    529  O2    C A  21       5.896   7.538  38.110  1.00  0.00    -0.244 OA
ATOM    530 'HO2   C A  21       9.559  10.064  36.554  1.00  0.00     0.210 HD
BRANCH 499 531
ATOM    531  O5'   G A  23       8.148   4.089  30.268  1.00  0.00    -0.287 OA
BRANCH 531 532
ATOM    532  C5'   G A  23       7.755   3.754  28.939  1.00  0.00     0.216 C 
BRANCH 532 533
ATOM    533  C4'   G A  23       7.802   2.257  28.740  1.00  0.00     0.180 C 
ATOM    534  C3'   G A  23       6.493   1.609  28.314  1.00  0.00     0.198 C 
ATOM    535  C2'   G A  23       6.674   0.171  28.786  1.00  0.00     0.199 C 
ATOM    536  C1'   G A  23       7.427   0.382  30.099  1.00  0.00     0.262 C 
ATOM    537  N9    G A  23       6.557   0.427  31.270  1.00  0.00    -0.293 N 
ATOM    538  O4'   G A  23       8.119   1.616  30.005  1.00  0.00    -0.353 OA
ATOM    539  C4    G A  23       5.791  -0.604  31.755  1.00  0.00     0.187 A 
ATOM    540  C8    G A  23       6.336   1.498  32.102  1.00  0.00     0.214 A 
ATOM    541  N3    G A  23       5.709  -1.845  31.233  1.00  0.00    -0.044 NA
ATOM    542  C5    G A  23       5.145  -0.092  32.861  1.00  0.00     0.173 A 
ATOM    543  C2    G A  23       4.886  -2.616  31.919  1.00  0.00     0.703 A 
ATOM    544  N2    G A  23       4.687  -3.880  31.534  1.00  0.00    -0.233 N 
ATOM    545  N1    G A  23       4.197  -2.207  33.031  1.00  0.00    -0.153 N 
ATOM    546  H21   G A  23       5.175  -4.225  30.719  1.00  0.00     0.174 HD
ATOM    547  H22   G A  23       4.055  -4.479  32.043  1.00  0.00     0.174 HD
ATOM    548  H1    G A  23       3.591  -2.873  33.484  1.00  0.00     0.187 HD
ATOM    549  C6    G A  23       4.264  -0.936  33.589  1.00  0.00     0.292 A 
ATOM    550  O6    G A  23       3.601  -0.672  34.597  1.00  0.00    -0.265 OA
ATOM    551  N7    G A  23       5.499   1.234  33.068  1.00  0.00    -0.234 NA
BRANCH 534 552
ATOM    552  O3'   G A  23       6.294   1.699  26.906  1.00  0.00    -0.279 OA
BRANCH 552 553
ATOM    553  P     A A  24       4.895   1.230  26.265  1.00  0.00     0.408 P 
ATOM    554  OP1   A A  24       3.818   1.660  27.194  1.00  0.00    -0.624 OA
ATOM    555  OP2   A A  24       5.006  -0.200  25.884  1.00  0.00    -0.624 OA
BRANCH 553 556
ATOM    556  O5'   A A  24       4.772   2.093  24.931  1.00  0.00    -0.287 OA
BRANCH 556 557
ATOM    557  C5'   A A  24       4.076   1.591  23.791  1.00  0.00     0.216 C 
BRANCH 557 558
ATOM    558  C4'   A A  24       3.285   2.697  23.133  1.00  0.00     0.180 C 
ATOM    559  C3'   A A  24       2.968   3.892  24.021  1.00  0.00     0.198 C 
ATOM    560  O3'   A A  24       4.032   4.840  24.023  1.00  0.00    -0.279 OA
ATOM    561  C2'   A A  24       1.698   4.444  23.387  1.00  0.00     0.199 C 
ATOM    562  P     T A  25       4.279   5.759  25.321  1.00  0.00     0.408 P 
ATOM    563  OP1   T A  25       5.370   6.710  24.989  1.00  0.00    -0.624 OA
ATOM    564  O5'   T A  25       2.925   6.585  25.472  1.00  0.00    -0.287 OA
ATOM    565  OP2   T A  25       4.414   4.873  26.505  1.00  0.00    -0.624 OA
ATOM    566  C5'   T A  25       2.544   7.560  24.502  1.00  0.00     0.216 C 
ATOM    567  C4'   T A  25       1.273   8.254  24.930  1.00  0.00     0.180 C 
ATOM    568  C3'   T A  25       1.223   8.683  26.390  1.00  0.00     0.198 C 
ATOM    569  O4'   T A  25       0.160   7.331  24.783  1.00  0.00    -0.353 OA
ATOM    570  O3'   T A  25       1.828   9.959  26.581  1.00  0.00    -0.279 OA
ATOM    571  C2'   T A  25      -0.274   8.700  26.681  1.00  0.00     0.199 C 
ATOM    572  P     C A  26       2.273  10.419  28.056  1.00  0.00     0.408 P 
ATOM    573  OP1   C A  26       3.048  11.677  27.913  1.00  0.00    -0.624 OA
ATOM    574  O5'   C A  26       0.898  10.767  28.782  1.00  0.00    -0.287 OA
ATOM    575  OP2   C A  26       2.886   9.254  28.746  1.00  0.00    -0.624 OA
ATOM    576  C5'   C A  26       0.734  10.560  30.184  1.00  0.00     0.216 C 
ATOM    577  C4'   C A  26      -0.725  10.662  30.560  1.00  0.00     0.180 C 
ATOM    578  C3'   C A  26      -1.033  10.387  32.026  1.00  0.00     0.198 C 
ATOM    579  O4'   C A  26      -1.471   9.657  29.818  1.00  0.00    -0.353 OA
ATOM    580  O3'   C A  26      -0.969  11.581  32.803  1.00  0.00    -0.279 OA
ATOM    581  C2'   C A  26      -2.438   9.803  31.972  1.00  0.00     0.199 C 
ATOM    582  P     A A  27       0.151  11.735  33.947  1.00  0.00     0.408 P 
ATOM    583  OP1   A A  27       0.495  13.178  34.033  1.00  0.00    -0.624 OA
ATOM    584  OP2   A A  27       1.227  10.739  33.708  1.00  0.00    -0.624 OA
ATOM    585  O5'   A A  27      -0.613  11.331  35.286  1.00  0.00    -0.287 OA
ATOM    586  C5'   A A  27      -1.864  11.929  35.625  1.00  0.00     0.216 C 
ATOM    587  C4'   A A  27      -2.526  11.158  36.742  1.00  0.00     0.180 C 
ATOM    588  C3'   A A  27      -1.582  10.470  37.719  1.00  0.00     0.198 C 
ATOM    589  O4'   A A  27      -3.305  10.070  36.167  1.00  0.00    -0.353 OA
ATOM    590  C2'   A A  27      -2.447   9.333  38.247  1.00  0.00     0.199 C 
ATOM    591  O2'   A A  27      -3.410   9.803  39.170  1.00  0.00    -0.388 OA
ATOM    592  C1'   A A  27      -3.162   8.908  36.966  1.00  0.00     0.262 C 
ATOM    593 'HO2   A A  27      -3.005  10.529  39.646  1.00  0.00     0.210 HD
ATOM    594  N9    A A  27      -2.432   7.903  36.195  1.00  0.00    -0.294 N 
ATOM    595  C4    A A  27      -2.427   6.548  36.423  1.00  0.00     0.167 A 
ATOM    596  C8    A A  27      -1.614   8.102  35.110  1.00  0.00     0.214 A 
ATOM    597  N3    A A  27      -3.088   5.882  37.385  1.00  0.00    -0.222 NA
ATOM    598  C5    A A  27      -1.599   6.005  35.458  1.00  0.00     0.149 A 
ATOM    599  C2    A A  27      -2.844   4.577  37.304  1.00  0.00     0.237 A 
ATOM    600  N1    A A  27      -2.073   3.910  36.435  1.00  0.00    -0.222 NA
ATOM    601  C6    A A  27      -1.423   4.610  35.480  1.00  0.00     0.155 A 
ATOM    602  N6    A A  27      -0.656   3.944  34.615  1.00  0.00    -0.382 N 
ATOM    603  H61   A A  27      -0.161   4.446  33.892  1.00  0.00     0.157 HD
ATOM    604  H62   A A  27      -0.572   2.939  34.684  1.00  0.00     0.157 HD
ATOM    605  N7    A A  27      -1.091   6.999  34.632  1.00  0.00    -0.236 NA
ATOM    606  O2'   C A  26      -3.411  10.819  31.811  1.00  0.00    -0.388 OA
ATOM    607  C1'   C A  26      -2.366   8.984  30.686  1.00  0.00     0.264 C 
ATOM    608 'HO2   C A  26      -3.002  11.637  32.099  1.00  0.00     0.210 HD
ATOM    609  N1    C A  26      -1.878   7.607  30.876  1.00  0.00    -0.278 N 
ATOM    610  C6    C A  26      -0.702   7.196  30.310  1.00  0.00     0.102 A 
ATOM    611  C2    C A  26      -2.637   6.721  31.644  1.00  0.00     0.352 A 
ATOM    612  C5    C A  26      -0.256   5.945  30.475  1.00  0.00     0.067 A 
ATOM    613  C4    C A  26      -1.052   5.063  31.262  1.00  0.00     0.128 A 
ATOM    614  N4    C A  26      -0.660   3.806  31.460  1.00  0.00    -0.384 N 
ATOM    615  N3    C A  26      -2.198   5.454  31.820  1.00  0.00    -0.177 NA
ATOM    616  H41   C A  26       0.202   3.470  31.055  1.00  0.00     0.157 HD
ATOM    617  H42   C A  26      -1.232   3.184  32.014  1.00  0.00     0.157 HD
ATOM    618  O2    C A  26      -3.697   7.117  32.149  1.00  0.00    -0.244 OA
ATOM    619  C1'   T A  25      -0.756   7.510  25.849  1.00  0.00     0.264 C 
ATOM    620  O2'   T A  25      -0.880   9.877  26.181  1.00  0.00    -0.388 OA
ATOM    621  N1    T A  25      -0.837   6.253  26.607  1.00  0.00    -0.280 N 
ATOM    622  C6    T A  25       0.218   5.368  26.639  1.00  0.00     0.104 A 
ATOM    623  C2    T A  25      -2.011   5.987  27.287  1.00  0.00     0.331 A 
ATOM    624  C5    T A  25       0.165   4.218  27.318  1.00  0.00     0.092 A 
ATOM    625  C4    T A  25      -1.015   3.872  28.046  1.00  0.00     0.250 A 
ATOM    626  N3    T A  25      -2.027   4.800  27.971  1.00  0.00    -0.275 N 
ATOM    627  O4    T A  25      -1.178   2.853  28.718  1.00  0.00    -0.268 OA
ATOM    628  H3    T A  25      -2.881   4.581  28.464  1.00  0.00     0.173 HD
ATOM    629  O2    T A  25      -2.964   6.744  27.284  1.00  0.00    -0.246 OA
ATOM    630 'HO2   T A  25      -0.296  10.604  26.397  1.00  0.00     0.210 HD
ATOM    631  C1'   A A  24       0.986   3.153  22.984  1.00  0.00     0.262 C 
ATOM    632  O4'   A A  24       1.983   2.176  22.742  1.00  0.00    -0.353 OA
BRANCH 588 633
ATOM    633  O3'   A A  27      -1.147  11.353  38.749  1.00  0.00    -0.279 OA
BRANCH 633 634
ATOM    634  P     G A  28       0.375  11.287  39.264  1.00  0.00     0.408 P 
ATOM    635  OP2   G A  28       0.453  10.328  40.397  1.00  0.00    -0.624 OA
ATOM    636  OP1   G A  28       1.235  11.082  38.071  1.00  0.00    -0.624 OA
BRANCH 634 637
ATOM    637  O5'   G A  28       0.656  12.751  39.827  1.00  0.00    -0.287 OA
BRANCH 637 638
ATOM    638  C5'   G A  28       1.641  12.972  40.834  1.00  0.00     0.216 C 
BRANCH 638 639
ATOM    639  C4'   G A  28       1.005  13.558  42.075  1.00  0.00     0.180 C 
ATOM    640  C3'   G A  28       1.111  12.714  43.335  1.00  0.00     0.198 C 
ATOM    641  C2'   G A  28      -0.023  13.269  44.192  1.00  0.00     0.199 C 
ATOM    642  O2'   G A  28       0.366  14.473  44.825  1.00  0.00    -0.388 OA
ATOM    643  C1'   G A  28      -1.080  13.594  43.133  1.00  0.00     0.262 C 
ATOM    644 'HO2   G A  28       1.318  14.530  44.744  1.00  0.00     0.210 HD
ATOM    645  O4'   G A  28      -0.426  13.684  41.879  1.00  0.00    -0.353 OA
ATOM    646  N9    G A  28      -2.136  12.590  43.035  1.00  0.00    -0.293 N 
ATOM    647  C8    G A  28      -2.400  11.761  41.972  1.00  0.00     0.214 A 
ATOM    648  C4    G A  28      -3.067  12.290  44.000  1.00  0.00     0.187 A 
ATOM    649  N7    G A  28      -3.415  10.967  42.178  1.00  0.00    -0.234 NA
ATOM    650  C5    G A  28      -3.847  11.290  43.459  1.00  0.00     0.173 A 
ATOM    651  C6    G A  28      -4.914  10.761  44.232  1.00  0.00     0.292 A 
ATOM    652  O6    G A  28      -5.719   9.871  43.931  1.00  0.00    -0.265 OA
ATOM    653  N1    G A  28      -4.998  11.376  45.476  1.00  0.00    -0.153 N 
ATOM    654  C2    G A  28      -4.164  12.370  45.920  1.00  0.00     0.703 A 
ATOM    655  H1    G A  28      -5.728  11.065  46.097  1.00  0.00     0.187 HD
ATOM    656  N3    G A  28      -3.169  12.872  45.213  1.00  0.00    -0.044 NA
ATOM    657  N2    G A  28      -4.404  12.833  47.150  1.00  0.00    -0.233 N 
ATOM    658  H21   G A  28      -3.818  13.564  47.523  1.00  0.00     0.174 HD
ATOM    659  H22   G A  28      -5.163  12.456  47.700  1.00  0.00     0.174 HD
BRANCH 640 660
ATOM    660  O3'   G A  28       2.385  12.857  43.957  1.00  0.00    -0.279 OA
BRANCH 660 661
ATOM    661  P     A A  29       3.301  11.559  44.214  1.00  0.00     0.408 P 
ATOM    662  OP2   A A  29       3.654  10.965  42.899  1.00  0.00    -0.624 OA
ATOM    663  OP1   A A  29       4.381  11.964  45.149  1.00  0.00    -0.624 OA
BRANCH 661 664
ATOM    664  O5'   A A  29       2.335  10.549  44.980  1.00  0.00    -0.287 OA
BRANCH 664 665
ATOM    665  C5'   A A  29       1.763   9.428  44.307  1.00  0.00     0.216 C 
BRANCH 665 666
ATOM    666  C4'   A A  29       2.420   8.149  44.771  1.00  0.00     0.180 C 
ATOM    667  O4'   A A  29       1.405   7.249  45.285  1.00  0.00    -0.353 OA
ATOM    668  C1'   A A  29       1.788   5.908  45.032  1.00  0.00     0.262 C 
ATOM    669  N9    A A  29       0.713   5.255  44.283  1.00  0.00    -0.294 N 
ATOM    670  C2'   A A  29       3.128   5.933  44.292  1.00  0.00     0.199 C 
ATOM    671  C8    A A  29      -0.243   5.845  43.492  1.00  0.00     0.214 A 
ATOM    672  C4    A A  29       0.459   3.906  44.237  1.00  0.00     0.167 A 
ATOM    673  N7    A A  29      -1.079   4.991  42.951  1.00  0.00    -0.236 NA
ATOM    674  C5    A A  29      -0.645   3.758  43.416  1.00  0.00     0.149 A 
ATOM    675  C6    A A  29      -1.111   2.447  43.206  1.00  0.00     0.155 A 
ATOM    676  N6    A A  29      -2.164   2.148  42.443  1.00  0.00    -0.382 N 
ATOM    677  N1    A A  29      -0.450   1.439  43.815  1.00  0.00    -0.222 NA
ATOM    678  H62   A A  29      -2.450   1.185  42.330  1.00  0.00     0.157 HD
ATOM    679  H61   A A  29      -2.673   2.887  41.978  1.00  0.00     0.157 HD
ATOM    680  C2    A A  29       0.606   1.738  44.585  1.00  0.00     0.237 A 
ATOM    681  N3    A A  29       1.138   2.927  44.860  1.00  0.00    -0.222 NA
ATOM    682  O2'   A A  29       4.168   5.795  45.242  1.00  0.00    -0.388 OA
ATOM    683  C3'   A A  29       3.118   7.335  43.692  1.00  0.00     0.198 C 
ATOM    684 'HO2   A A  29       4.836   6.440  45.010  1.00  0.00     0.210 HD
ATOM    685  O3'   A A  29       4.430   7.828  43.434  1.00  0.00    -0.279 OA
ATOM    686  P     A A  30       5.096   7.615  41.985  1.00  0.00     0.408 P 
ATOM    687  O5'   A A  30       5.539   6.084  41.984  1.00  0.00    -0.287 OA
ATOM    688  OP2   A A  30       4.047   7.797  40.948  1.00  0.00    -0.624 OA
ATOM    689  OP1   A A  30       6.317   8.459  41.949  1.00  0.00    -0.624 OA
ATOM    690  C5'   A A  30       6.498   5.597  42.921  1.00  0.00     0.216 C 
ATOM    691  C4'   A A  30       6.611   4.093  42.820  1.00  0.00     0.180 C 
ATOM    692  C3'   A A  30       6.787   3.534  41.417  1.00  0.00     0.198 C 
ATOM    693  O4'   A A  30       5.375   3.489  43.274  1.00  0.00    -0.353 OA
ATOM    694  O3'   A A  30       8.147   3.604  40.995  1.00  0.00    -0.279 OA
ATOM    695  C2'   A A  30       6.296   2.097  41.568  1.00  0.00     0.199 C 
ATOM    696  P     G A  31       8.513   3.448  39.436  1.00  0.00     0.408 P 
ATOM    697  O5'   G A  31       8.346   1.885  39.161  1.00  0.00    -0.287 OA
ATOM    698  OP1   G A  31       9.951   3.787  39.295  1.00  0.00    -0.624 OA
ATOM    699  OP2   G A  31       7.503   4.188  38.634  1.00  0.00    -0.624 OA
ATOM    700  C5'   G A  31       7.235   1.376  38.421  1.00  0.00     0.216 C 
ATOM    701  C4'   G A  31       7.626   1.147  36.978  1.00  0.00     0.180 C 
ATOM    702  O4'   G A  31       8.775   1.985  36.667  1.00  0.00    -0.353 OA
ATOM    703  C3'   G A  31       8.058  -0.277  36.640  1.00  0.00     0.198 C 
ATOM    704  C1'   G A  31       9.754   1.224  35.987  1.00  0.00     0.262 C 
ATOM    705  C2'   G A  31       9.080  -0.067  35.527  1.00  0.00     0.199 C 
ATOM    706  N9    G A  31      10.886   1.025  36.888  1.00  0.00    -0.293 N 
ATOM    707  O2'   G A  31       8.445   0.168  34.285  1.00  0.00    -0.388 OA
ATOM    708 'HO2   G A  31       7.509   0.014  34.419  1.00  0.00     0.210 HD
ATOM    709  C4    G A  31      11.368  -0.177  37.353  1.00  0.00     0.187 A 
ATOM    710  C8    G A  31      11.682   1.998  37.440  1.00  0.00     0.214 A 
ATOM    711  N3    G A  31      10.874  -1.397  37.056  1.00  0.00    -0.044 NA
ATOM    712  C5    G A  31      12.436   0.146  38.162  1.00  0.00     0.173 A 
ATOM    713  C2    G A  31      11.550  -2.361  37.652  1.00  0.00     0.703 A 
ATOM    714  N2    G A  31      11.189  -3.634  37.466  1.00  0.00    -0.233 N 
ATOM    715  N1    G A  31      12.626  -2.150  38.475  1.00  0.00    -0.153 N 
ATOM    716  H22   G A  31      11.695  -4.385  37.911  1.00  0.00     0.174 HD
ATOM    717  H21   G A  31      10.401  -3.833  36.867  1.00  0.00     0.174 HD
ATOM    718  C6    G A  31      13.153  -0.904  38.797  1.00  0.00     0.292 A 
ATOM    719  H1    G A  31      13.077  -2.955  38.880  1.00  0.00     0.187 HD
ATOM    720  O6    G A  31      14.127  -0.827  39.554  1.00  0.00    -0.265 OA
ATOM    721  N7    G A  31      12.622   1.521  38.208  1.00  0.00    -0.234 NA
ATOM    722  O2'   A A  30       7.306   1.264  42.108  1.00  0.00    -0.388 OA
ATOM    723  C1'   A A  30       5.187   2.251  42.613  1.00  0.00     0.262 C 
ATOM    724 'HO2   A A  30       8.144   1.607  41.796  1.00  0.00     0.210 HD
ATOM    725  N9    A A  30       3.842   2.232  42.038  1.00  0.00    -0.294 N 
ATOM    726  C8    A A  30       3.144   3.276  41.483  1.00  0.00     0.214 A 
ATOM    727  C4    A A  30       3.018   1.137  41.942  1.00  0.00     0.167 A 
ATOM    728  N7    A A  30       1.957   2.941  41.039  1.00  0.00    -0.236 NA
ATOM    729  C5    A A  30       1.865   1.585  41.324  1.00  0.00     0.149 A 
ATOM    730  C6    A A  30       0.851   0.635  41.102  1.00  0.00     0.155 A 
ATOM    731  N6    A A  30      -0.312   0.915  40.514  1.00  0.00    -0.382 N 
ATOM    732  N1    A A  30       1.078  -0.633  41.509  1.00  0.00    -0.222 NA
ATOM    733  H61   A A  30      -0.503   1.856  40.201  1.00  0.00     0.157 HD
ATOM    734  H62   A A  30      -1.001   0.188  40.374  1.00  0.00     0.157 HD
ATOM    735  C2    A A  30       2.247  -0.917  42.098  1.00  0.00     0.237 A 
ATOM    736  N3    A A  30       3.276  -0.115  42.359  1.00  0.00    -0.222 NA
BRANCH 703 737
ATOM    737  O3'   G A  31       6.948  -1.069  36.219  1.00  0.00    -0.279 OA
BRANCH 737 738
ATOM    738  P     G A  32       6.331  -2.179  37.207  1.00  0.00     0.408 P 
ATOM    739  OP2   G A  32       7.209  -2.261  38.401  1.00  0.00    -0.624 OA
ATOM    740  OP1   G A  32       4.882  -1.896  37.383  1.00  0.00    -0.624 OA
BRANCH 738 741
ATOM    741  O5'   G A  32       6.480  -3.544  36.396  1.00  0.00    -0.287 OA
BRANCH 741 742
ATOM    742  C5'   G A  32       5.533  -4.601  36.548  1.00  0.00     0.216 C 
BRANCH 742 743
ATOM    743  C4'   G A  32       4.657  -4.699  35.321  1.00  0.00     0.180 C 
ATOM    744  C3'   G A  32       3.158  -4.756  35.593  1.00  0.00     0.198 C 
ATOM    745  C2'   G A  32       2.631  -5.569  34.417  1.00  0.00     0.199 C 
ATOM    746  O3'   G A  32       2.588  -3.452  35.645  1.00  0.00    -0.279 OA
ATOM    747  O2'   G A  32       2.510  -4.769  33.257  1.00  0.00    -0.388 OA
ATOM    748  C1'   G A  32       3.769  -6.566  34.209  1.00  0.00     0.262 C 
ATOM    749 'HO2   G A  32       2.375  -3.869  33.558  1.00  0.00     0.210 HD
ATOM    750  N9    G A  32       3.614  -7.807  34.962  1.00  0.00    -0.293 N 
ATOM    751  O4'   G A  32       4.966  -5.940  34.629  1.00  0.00    -0.353 OA
ATOM    752  C4    G A  32       2.603  -8.726  34.821  1.00  0.00     0.187 A 
ATOM    753  C8    G A  32       4.441  -8.290  35.947  1.00  0.00     0.214 A 
ATOM    754  C5    G A  32       2.881  -9.720  35.735  1.00  0.00     0.173 A 
ATOM    755  N3    G A  32       1.570  -8.640  33.958  1.00  0.00    -0.044 NA
ATOM    756  N7    G A  32       4.044  -9.432  36.437  1.00  0.00    -0.234 NA
ATOM    757  C6    G A  32       2.000 -10.828  35.828  1.00  0.00     0.292 A 
ATOM    758  N1    G A  32       0.946 -10.718  34.929  1.00  0.00    -0.153 N 
ATOM    759  O6    G A  32       2.071 -11.810  36.574  1.00  0.00    -0.265 OA
ATOM    760  H1    G A  32       0.267 -11.464  34.920  1.00  0.00     0.187 HD
ATOM    761  C2    G A  32       0.760  -9.679  34.055  1.00  0.00     0.703 A 
ATOM    762  N2    G A  32      -0.316  -9.754  33.268  1.00  0.00    -0.233 N 
ATOM    763  H21   G A  32      -0.498  -9.012  32.609  1.00  0.00     0.174 HD
ATOM    764  H22   G A  32      -0.942 -10.546  33.333  1.00  0.00     0.174 HD
ATOM    765  P     C A  33       1.363  -3.151  36.644  1.00  0.00     0.408 P 
ATOM    766  O5'   C A  33       0.196  -4.107  36.126  1.00  0.00    -0.287 OA
ATOM    767  OP2   C A  33       1.756  -3.593  38.005  1.00  0.00    -0.624 OA
ATOM    768  OP1   C A  33       0.948  -1.743  36.421  1.00  0.00    -0.624 OA
ATOM    769  C5'   C A  33      -0.602  -3.747  34.998  1.00  0.00     0.216 C 
ATOM    770  C4'   C A  33      -1.641  -4.811  34.729  1.00  0.00     0.180 C 
ATOM    771  C3'   C A  33      -2.653  -5.045  35.842  1.00  0.00     0.198 C 
ATOM    772  O4'   C A  33      -0.980  -6.094  34.579  1.00  0.00    -0.353 OA
ATOM    773  O3'   C A  33      -3.723  -4.106  35.779  1.00  0.00    -0.279 OA
ATOM    774  C2'   C A  33      -3.114  -6.474  35.573  1.00  0.00     0.199 C 
ATOM    775  P     T A  34      -4.682  -3.894  37.055  1.00  0.00     0.408 P 
ATOM    776  OP2   T A  34      -3.859  -3.407  38.191  1.00  0.00    -0.624 OA
ATOM    777  OP1   T A  34      -5.847  -3.093  36.597  1.00  0.00    -0.624 OA
ATOM    778  O5'   T A  34      -5.195  -5.362  37.406  1.00  0.00    -0.287 OA
ATOM    779  C5'   T A  34      -6.143  -6.029  36.573  1.00  0.00     0.216 C 
ATOM    780  C4'   T A  34      -6.685  -7.253  37.274  1.00  0.00     0.180 C 
ATOM    781  C3'   T A  34      -7.068  -7.063  38.733  1.00  0.00     0.198 C 
ATOM    782  O4'   T A  34      -5.657  -8.277  37.312  1.00  0.00    -0.353 OA
ATOM    783  C2'   T A  34      -6.981  -8.482  39.284  1.00  0.00     0.199 C 
ATOM    784  O3'   T A  34      -8.375  -6.508  38.859  1.00  0.00    -0.279 OA
ATOM    785  O2'   T A  34      -8.137  -9.226  38.950  1.00  0.00    -0.388 OA
ATOM    786  C1'   T A  34      -5.791  -9.040  38.498  1.00  0.00     0.264 C 
ATOM    787 'HO2   T A  34      -8.792  -8.585  38.670  1.00  0.00     0.210 HD
ATOM    788  N1    T A  34      -4.517  -8.982  39.231  1.00  0.00    -0.280 N 
ATOM    789  C2    T A  34      -4.006 -10.165  39.734  1.00  0.00     0.331 A 
ATOM    790  C6    T A  34      -3.854  -7.788  39.414  1.00  0.00     0.104 A 
ATOM    791  N3    T A  34      -2.821 -10.043  40.412  1.00  0.00    -0.275 N 
ATOM    792  O2    T A  34      -4.558 -11.241  39.588  1.00  0.00    -0.246 OA
ATOM    793  H3    T A  34      -2.434 -10.893  40.795  1.00  0.00     0.173 HD
ATOM    794  C4    T A  34      -2.108  -8.887  40.633  1.00  0.00     0.250 A 
ATOM    795  C5    T A  34      -2.699  -7.709  40.082  1.00  0.00     0.092 A 
ATOM    796  O4    T A  34      -1.051  -8.942  41.263  1.00  0.00    -0.268 OA
ATOM    797  P     G A  35      -8.582  -5.114  39.634  1.00  0.00     0.408 P 
ATOM    798  OP1   G A  35      -9.992  -4.698  39.415  1.00  0.00    -0.624 OA
ATOM    799  O5'   G A  35      -8.409  -5.498  41.171  1.00  0.00    -0.287 OA
ATOM    800  OP2   G A  35      -7.479  -4.192  39.255  1.00  0.00    -0.624 OA
ATOM    801  C5'   G A  35      -9.005  -6.679  41.707  1.00  0.00     0.216 C 
ATOM    802  C4'   G A  35      -8.677  -6.813  43.176  1.00  0.00     0.180 C 
ATOM    803  C3'   G A  35      -8.518  -5.500  43.932  1.00  0.00     0.198 C 
ATOM    804  O4'   G A  35      -7.389  -7.477  43.311  1.00  0.00    -0.353 OA
ATOM    805  O3'   G A  35      -9.766  -5.023  44.424  1.00  0.00    -0.279 OA
ATOM    806  C2'   G A  35      -7.554  -5.880  45.048  1.00  0.00     0.199 C 
ATOM    807  P     C A  36     -10.230  -3.521  44.090  1.00  0.00     0.408 P 
ATOM    808  OP1   C A  36     -11.494  -3.275  44.830  1.00  0.00    -0.624 OA
ATOM    809  O5'   C A  36      -9.091  -2.617  44.742  1.00  0.00    -0.287 OA
ATOM    810  OP2   C A  36     -10.193  -3.331  42.618  1.00  0.00    -0.624 OA
ATOM    811  C5'   C A  36      -8.778  -2.716  46.130  1.00  0.00     0.216 C 
ATOM    812  C4'   C A  36      -7.848  -1.600  46.537  1.00  0.00     0.180 C 
ATOM    813  C3'   C A  36      -8.076  -0.268  45.838  1.00  0.00     0.198 C 
ATOM    814  O4'   C A  36      -6.487  -1.961  46.178  1.00  0.00    -0.353 OA
ATOM    815  O3'   C A  36      -9.104   0.490  46.470  1.00  0.00    -0.279 OA
ATOM    816  C2'   C A  36      -6.709   0.395  45.949  1.00  0.00     0.199 C 
ATOM    817  P     G A  37      -9.933   1.577  45.623  1.00  0.00     0.408 P 
ATOM    818  O5'   G A  37      -8.918   2.796  45.462  1.00  0.00    -0.287 OA
ATOM    819  OP2   G A  37     -10.207   1.020  44.274  1.00  0.00    -0.624 OA
ATOM    820  OP1   G A  37     -11.064   2.027  46.473  1.00  0.00    -0.624 OA
ATOM    821  C5'   G A  37      -8.431   3.505  46.602  1.00  0.00     0.216 C 
ATOM    822  C4'   G A  37      -7.908   4.861  46.188  1.00  0.00     0.180 C 
ATOM    823  C3'   G A  37      -8.601   5.489  44.985  1.00  0.00     0.198 C 
ATOM    824  O4'   G A  37      -6.515   4.722  45.792  1.00  0.00    -0.353 OA
ATOM    825  O3'   G A  37      -9.730   6.266  45.377  1.00  0.00    -0.279 OA
ATOM    826  C2'   G A  37      -7.495   6.337  44.372  1.00  0.00     0.199 C 
ATOM    827  P     T A  38     -10.926   6.522  44.332  1.00  0.00     0.408 P 
ATOM    828  OP2   T A  38     -11.320   5.218  43.739  1.00  0.00    -0.624 OA
ATOM    829  OP1   T A  38     -11.945   7.352  45.022  1.00  0.00    -0.624 OA
ATOM    830  O5'   T A  38     -10.255   7.406  43.188  1.00  0.00    -0.287 OA
ATOM    831  C5'   T A  38      -9.780   8.723  43.463  1.00  0.00     0.216 C 
ATOM    832  C4'   T A  38      -9.150   9.319  42.226  1.00  0.00     0.180 C 
ATOM    833  C3'   T A  38      -9.981   9.226  40.955  1.00  0.00     0.198 C 
ATOM    834  O4'   T A  38      -7.935   8.586  41.910  1.00  0.00    -0.353 OA
ATOM    835  O3'   T A  38     -10.929  10.287  40.867  1.00  0.00    -0.279 OA
ATOM    836  C2'   T A  38      -8.916   9.303  39.868  1.00  0.00     0.199 C 
ATOM    837  P     G A  39     -12.272  10.089  40.003  1.00  0.00     0.408 P 
ATOM    838  O5'   G A  39     -11.742   9.855  38.518  1.00  0.00    -0.287 OA
ATOM    839  OP2   G A  39     -12.946   8.848  40.462  1.00  0.00    -0.624 OA
ATOM    840  OP1   G A  39     -13.007  11.379  40.035  1.00  0.00    -0.624 OA
ATOM    841  C5'   G A  39     -10.998  10.864  37.838  1.00  0.00     0.216 C 
ATOM    842  C4'   G A  39     -10.546  10.360  36.487  1.00  0.00     0.180 C 
ATOM    843  O4'   G A  39      -9.514   9.356  36.662  1.00  0.00    -0.353 OA
ATOM    844  C3'   G A  39     -11.598   9.636  35.662  1.00  0.00     0.198 C 
ATOM    845  C1'   G A  39      -9.555   8.448  35.573  1.00  0.00     0.262 C 
ATOM    846  N9    G A  39      -9.645   7.090  36.103  1.00  0.00    -0.293 N 
ATOM    847  C2'   G A  39     -10.743   8.833  34.687  1.00  0.00     0.199 C 
ATOM    848  C4    G A  39      -9.315   5.933  35.439  1.00  0.00     0.187 A 
ATOM    849  C8    G A  39     -10.077   6.710  37.350  1.00  0.00     0.214 A 
ATOM    850  N3    G A  39      -8.843   5.849  34.178  1.00  0.00    -0.044 NA
ATOM    851  C5    G A  39      -9.571   4.913  36.332  1.00  0.00     0.173 A 
ATOM    852  C2    G A  39      -8.622   4.598  33.816  1.00  0.00     0.703 A 
ATOM    853  N1    G A  39      -8.843   3.514  34.626  1.00  0.00    -0.153 N 
ATOM    854  N2    G A  39      -8.152   4.337  32.594  1.00  0.00    -0.233 N 
ATOM    855  C6    G A  39      -9.326   3.574  35.927  1.00  0.00     0.292 A 
ATOM    856  H1    G A  39      -8.640   2.601  34.247  1.00  0.00     0.187 HD
ATOM    857  O6    G A  39      -9.491   2.531  36.570  1.00  0.00    -0.265 OA
ATOM    858  H22   G A  39      -7.986   3.383  32.302  1.00  0.00     0.174 HD
ATOM    859  H21   G A  39      -7.972   5.100  31.960  1.00  0.00     0.174 HD
ATOM    860  N7    G A  39     -10.050   5.418  37.533  1.00  0.00    -0.234 NA
ATOM    861  C1'   T A  38      -7.789   8.487  40.503  1.00  0.00     0.264 C 
ATOM    862  O2'   T A  38      -8.467  10.633  39.691  1.00  0.00    -0.388 OA
ATOM    863  N1    T A  38      -7.804   7.065  40.133  1.00  0.00    -0.280 N 
ATOM    864  C6    T A  38      -8.483   6.134  40.887  1.00  0.00     0.104 A 
ATOM    865  C2    T A  38      -7.110   6.689  38.996  1.00  0.00     0.331 A 
ATOM    866  C5    T A  38      -8.505   4.835  40.571  1.00  0.00     0.092 A 
ATOM    867  C4    T A  38      -7.812   4.369  39.412  1.00  0.00     0.250 A 
ATOM    868  N3    T A  38      -7.160   5.351  38.702  1.00  0.00    -0.275 N 
ATOM    869  O4    T A  38      -7.744   3.202  39.028  1.00  0.00    -0.268 OA
ATOM    870  H3    T A  38      -6.678   5.057  37.866  1.00  0.00     0.173 HD
ATOM    871  O2    T A  38      -6.495   7.479  38.303  1.00  0.00    -0.246 OA
ATOM    872 'HO2   T A  38      -9.074  11.192  40.178  1.00  0.00     0.210 HD
ATOM    873  O2'   G A  37      -7.302   7.535  45.102  1.00  0.00    -0.388 OA
ATOM    874  C1'   G A  37      -6.287   5.430  44.588  1.00  0.00     0.262 C 
ATOM    875 'HO2   G A  37      -8.083   7.656  45.642  1.00  0.00     0.210 HD
ATOM    876  N9    G A  37      -6.078   4.458  43.518  1.00  0.00    -0.293 N 
ATOM    877  C8    G A  37      -6.552   3.171  43.466  1.00  0.00     0.214 A 
ATOM    878  C4    G A  37      -5.360   4.652  42.363  1.00  0.00     0.187 A 
ATOM    879  N7    G A  37      -6.191   2.531  42.388  1.00  0.00    -0.234 NA
ATOM    880  C5    G A  37      -5.436   3.456  41.679  1.00  0.00     0.173 A 
ATOM    881  C6    G A  37      -4.777   3.342  40.427  1.00  0.00     0.292 A 
ATOM    882  O6    G A  37      -4.727   2.368  39.667  1.00  0.00    -0.265 OA
ATOM    883  N1    G A  37      -4.127   4.521  40.083  1.00  0.00    -0.153 N 
ATOM    884  C2    G A  37      -4.114   5.663  40.840  1.00  0.00     0.703 A 
ATOM    885  H1    G A  37      -3.626   4.534  39.208  1.00  0.00     0.187 HD
ATOM    886  N3    G A  37      -4.724   5.786  42.006  1.00  0.00    -0.044 NA
ATOM    887  N2    G A  37      -3.432   6.696  40.338  1.00  0.00    -0.233 N 
ATOM    888  H21   G A  37      -3.390   7.560  40.856  1.00  0.00     0.174 HD
ATOM    889  H22   G A  37      -2.961   6.612  39.447  1.00  0.00     0.174 HD
ATOM    890  O2'   C A  36      -6.504   0.926  47.245  1.00  0.00    -0.388 OA
ATOM    891  C1'   C A  36      -5.782  -0.806  45.757  1.00  0.00     0.264 C 
ATOM    892 'HO2   C A  36      -7.372   1.123  47.598  1.00  0.00     0.210 HD
ATOM    893  N1    C A  36      -5.352  -0.999  44.361  1.00  0.00    -0.278 N 
ATOM    894  C6    C A  36      -5.845  -2.027  43.605  1.00  0.00     0.102 A 
ATOM    895  C2    C A  36      -4.426  -0.108  43.816  1.00  0.00     0.352 A 
ATOM    896  C5    C A  36      -5.455  -2.200  42.334  1.00  0.00     0.067 A 
ATOM    897  C4    C A  36      -4.512  -1.270  41.806  1.00  0.00     0.128 A 
ATOM    898  N4    C A  36      -4.086  -1.387  40.549  1.00  0.00    -0.384 N 
ATOM    899  N3    C A  36      -4.027  -0.266  42.535  1.00  0.00    -0.177 NA
ATOM    900  H41   C A  36      -4.427  -2.133  39.960  1.00  0.00     0.157 HD
ATOM    901  H42   C A  36      -3.414  -0.723  40.187  1.00  0.00     0.157 HD
ATOM    902  O2    C A  36      -3.991   0.810  44.524  1.00  0.00    -0.244 OA
ATOM    903  C1'   G A  35      -6.614  -6.822  44.299  1.00  0.00     0.262 C 
ATOM    904  O2'   G A  35      -8.213  -6.600  46.072  1.00  0.00    -0.388 OA
ATOM    905  N9    G A  35      -5.509  -6.134  43.638  1.00  0.00    -0.293 N 
ATOM    906  C4    G A  35      -4.711  -5.157  44.183  1.00  0.00     0.187 A 
ATOM    907  C8    G A  35      -5.063  -6.323  42.352  1.00  0.00     0.214 A 
ATOM    908  C5    G A  35      -3.825  -4.808  43.186  1.00  0.00     0.173 A 
ATOM    909  N3    G A  35      -4.805  -4.665  45.436  1.00  0.00    -0.044 NA
ATOM    910  N7    G A  35      -4.058  -5.552  42.037  1.00  0.00    -0.234 NA
ATOM    911  C6    G A  35      -2.858  -3.803  43.453  1.00  0.00     0.292 A 
ATOM    912  N1    G A  35      -2.975  -3.314  44.748  1.00  0.00    -0.153 N 
ATOM    913  O6    G A  35      -1.988  -3.350  42.702  1.00  0.00    -0.265 OA
ATOM    914  C2    G A  35      -3.901  -3.733  45.669  1.00  0.00     0.703 A 
ATOM    915  H1    G A  35      -2.326  -2.596  45.028  1.00  0.00     0.187 HD
ATOM    916  N2    G A  35      -3.855  -3.138  46.863  1.00  0.00    -0.233 N 
ATOM    917  H21   G A  35      -4.519  -3.415  47.572  1.00  0.00     0.174 HD
ATOM    918  H22   G A  35      -3.173  -2.423  47.059  1.00  0.00     0.174 HD
ATOM    919 'HO2   G A  35      -9.133  -6.336  46.037  1.00  0.00     0.210 HD
ATOM    920  C1'   C A  33      -1.824  -7.123  35.064  1.00  0.00     0.264 C 
ATOM    921  O2'   C A  33      -4.075  -6.512  34.534  1.00  0.00    -0.388 OA
ATOM    922  N1    C A  33      -1.096  -7.878  36.097  1.00  0.00    -0.278 N 
ATOM    923  C2    C A  33      -1.565  -9.141  36.465  1.00  0.00     0.352 A 
ATOM    924  C6    C A  33       0.019  -7.357  36.693  1.00  0.00     0.102 A 
ATOM    925  O2    C A  33      -2.576  -9.594  35.908  1.00  0.00    -0.244 OA
ATOM    926  N3    C A  33      -0.907  -9.842  37.414  1.00  0.00    -0.177 NA
ATOM    927  C4    C A  33       0.180  -9.326  37.989  1.00  0.00     0.128 A 
ATOM    928  C5    C A  33       0.684  -8.041  37.633  1.00  0.00     0.067 A 
ATOM    929 'HO2   C A  33      -4.248  -5.605  34.282  1.00  0.00     0.210 HD
BRANCH 847 930
ATOM    930  O2'   G A  39     -10.274   9.652  33.632  1.00  0.00    -0.388 OA
ATOM    931 'HO2   G A  39     -10.973   9.679  32.978  1.00  0.00     0.210 HD
ENDBRANCH 847 930
BRANCH 844 932
ATOM    932  O3'   G A  39     -12.472  10.546  34.999  1.00  0.00    -0.279 OA
BRANCH 932 933
ATOM    933  P     G A  40     -12.050  12.090  34.847  1.00  0.00     0.408 P 
ATOM    934  OP2   G A  40     -12.601  12.603  33.567  1.00  0.00    -0.624 OA
ATOM    935  OP1   G A  40     -12.400  12.770  36.120  1.00  0.00    -0.624 OA
BRANCH 933 936
ATOM    936  O5'   G A  40     -10.462  12.048  34.727  1.00  0.00    -0.287 OA
BRANCH 936 937
ATOM    937  C5'   G A  40      -9.760  12.991  33.919  1.00  0.00     0.216 C 
BRANCH 937 938
ATOM    938  C4'   G A  40      -9.653  12.486  32.498  1.00  0.00     0.180 C 
ATOM    939  C3'   G A  40      -8.243  12.180  32.014  1.00  0.00     0.198 C 
ATOM    940  C2'   G A  40      -8.381  12.336  30.505  1.00  0.00     0.199 C 
ATOM    941  C1'   G A  40      -9.322  13.537  30.424  1.00  0.00     0.262 C 
ATOM    942  O2'   G A  40      -9.025  11.210  29.935  1.00  0.00    -0.388 OA
ATOM    943  N9    G A  40      -8.628  14.820  30.367  1.00  0.00    -0.293 N 
ATOM    944  O4'   G A  40     -10.130  13.517  31.589  1.00  0.00    -0.353 OA
ATOM    945  C8    G A  40      -8.296  15.630  31.425  1.00  0.00     0.214 A 
ATOM    946  C4    G A  40      -8.172  15.456  29.237  1.00  0.00     0.187 A 
ATOM    947  N7    G A  40      -7.672  16.718  31.066  1.00  0.00    -0.234 NA
ATOM    948  C5    G A  40      -7.585  16.621  29.684  1.00  0.00     0.173 A 
ATOM    949  C6    G A  40      -7.011  17.506  28.734  1.00  0.00     0.292 A 
ATOM    950  N1    G A  40      -7.143  17.020  27.439  1.00  0.00    -0.153 N 
ATOM    951  O6    G A  40      -6.445  18.587  28.928  1.00  0.00    -0.265 OA
ATOM    952  C2    G A  40      -7.747  15.837  27.099  1.00  0.00     0.703 A 
ATOM    953  H1    G A  40      -6.762  17.586  26.698  1.00  0.00     0.187 HD
ATOM    954  N2    G A  40      -7.767  15.540  25.798  1.00  0.00    -0.233 N 
ATOM    955  N3    G A  40      -8.289  15.005  27.970  1.00  0.00    -0.044 NA
ATOM    956  H21   G A  40      -8.198  14.679  25.499  1.00  0.00     0.174 HD
ATOM    957  H22   G A  40      -7.357  16.164  25.118  1.00  0.00     0.174 HD
ATOM    958 'HO2   G A  40      -8.805  10.462  30.491  1.00  0.00     0.210 HD
BRANCH 939 959
ATOM    959  O3'   G A  40      -7.826  10.871  32.391  1.00  0.00    -0.279 OA
BRANCH 959 960
ATOM    960  P     A A  41      -6.616  10.691  33.437  1.00  0.00     0.408 P 
ATOM    961  OP2   A A  41      -7.172  10.749  34.813  1.00  0.00    -0.624 OA
ATOM    962  OP1   A A  41      -5.841   9.498  33.009  1.00  0.00    -0.624 OA
BRANCH 960 963
ATOM    963  O5'   A A  41      -5.711  11.982  33.202  1.00  0.00    -0.287 OA
BRANCH 963 964
ATOM    964  C5'   A A  41      -6.098  13.257  33.716  1.00  0.00     0.216 C 
BRANCH 964 965
ATOM    965  C4'   A A  41      -5.016  13.806  34.618  1.00  0.00     0.180 C 
ATOM    966  O4'   A A  41      -4.647  15.131  34.147  1.00  0.00    -0.353 OA
ATOM    967  C1'   A A  41      -4.466  16.000  35.250  1.00  0.00     0.262 C 
ATOM    968  C2'   A A  41      -4.527  15.155  36.521  1.00  0.00     0.199 C 
ATOM    969  N9    A A  41      -5.489  17.044  35.182  1.00  0.00    -0.294 N 
ATOM    970  O2'   A A  41      -3.221  14.703  36.826  1.00  0.00    -0.388 OA
ATOM    971  C3'   A A  41      -5.418  14.000  36.075  1.00  0.00     0.198 C 
ATOM    972 'HO2   A A  41      -3.317  13.833  37.213  1.00  0.00     0.210 HD
ATOM    973  O3'   A A  41      -5.188  12.817  36.838  1.00  0.00    -0.279 OA
ATOM    974  P     A A  42      -6.253  12.365  37.956  1.00  0.00     0.408 P 
ATOM    975  OP1   A A  42      -5.786  11.068  38.512  1.00  0.00    -0.624 OA
ATOM    976  O5'   A A  42      -6.113  13.469  39.098  1.00  0.00    -0.287 OA
ATOM    977  OP2   A A  42      -7.615  12.464  37.376  1.00  0.00    -0.624 OA
ATOM    978  C5'   A A  42      -4.982  13.487  39.969  1.00  0.00     0.216 C 
ATOM    979  C4'   A A  42      -4.818  14.858  40.587  1.00  0.00     0.180 C 
ATOM    980  C3'   A A  42      -5.932  15.291  41.533  1.00  0.00     0.198 C 
ATOM    981  O4'   A A  42      -4.818  15.854  39.526  1.00  0.00    -0.353 OA
ATOM    982  O3'   A A  42      -5.683  14.855  42.868  1.00  0.00    -0.279 OA
ATOM    983  C2'   A A  42      -5.904  16.809  41.405  1.00  0.00     0.199 C 
ATOM    984  P     T A  43      -6.906  14.703  43.902  1.00  0.00     0.408 P 
ATOM    985  OP1   T A  43      -6.335  14.278  45.205  1.00  0.00    -0.624 OA
ATOM    986  O5'   T A  43      -7.468  16.186  44.062  1.00  0.00    -0.287 OA
ATOM    987  OP2   T A  43      -7.961  13.877  43.260  1.00  0.00    -0.624 OA
ATOM    988  C5'   T A  43      -6.669  17.218  44.638  1.00  0.00     0.216 C 
ATOM    989  C4'   T A  43      -7.399  18.540  44.578  1.00  0.00     0.180 C 
ATOM    990  C3'   T A  43      -8.806  18.534  45.161  1.00  0.00     0.198 C 
ATOM    991  O4'   T A  43      -7.573  18.917  43.185  1.00  0.00    -0.353 OA
ATOM    992  O3'   T A  43      -8.785  18.793  46.563  1.00  0.00    -0.279 OA
ATOM    993  C2'   T A  43      -9.499  19.642  44.375  1.00  0.00     0.199 C 
ATOM    994  P     C A  44      -9.853  18.071  47.525  1.00  0.00     0.408 P 
ATOM    995  OP2   C A  44      -9.936  16.639  47.138  1.00  0.00    -0.624 OA
ATOM    996  OP1   C A  44      -9.496  18.433  48.921  1.00  0.00    -0.624 OA
ATOM    997  O5'   C A  44     -11.235  18.781  47.169  1.00  0.00    -0.287 OA
ATOM    998  C5'   C A  44     -12.430  18.024  46.981  1.00  0.00     0.216 C 
ATOM    999  C4'   C A  44     -13.029  18.322  45.627  1.00  0.00     0.180 C 
ATOM   1000  C3'   C A  44     -14.339  17.609  45.327  1.00  0.00     0.198 C 
ATOM   1001  O4'   C A  44     -12.112  17.865  44.594  1.00  0.00    -0.353 OA
ATOM   1002  O3'   C A  44     -15.457  18.346  45.814  1.00  0.00    -0.279 OA
ATOM   1003  C2'   C A  44     -14.320  17.512  43.808  1.00  0.00     0.199 C 
ATOM   1004  P     A A  45     -16.789  17.572  46.277  1.00  0.00     0.408 P 
ATOM   1005  OP1   A A  45     -17.631  18.548  47.014  1.00  0.00    -0.624 OA
ATOM   1006  OP2   A A  45     -16.400  16.297  46.932  1.00  0.00    -0.624 OA
ATOM   1007  O5'   A A  45     -17.527  17.223  44.908  1.00  0.00    -0.287 OA
ATOM   1008  C5'   A A  45     -17.964  18.254  44.025  1.00  0.00     0.216 C 
ATOM   1009  C4'   A A  45     -18.834  17.677  42.933  1.00  0.00     0.180 C 
ATOM   1010  O4'   A A  45     -17.976  17.100  41.907  1.00  0.00    -0.353 OA
ATOM   1011  C3'   A A  45     -19.755  16.539  43.360  1.00  0.00     0.198 C 
ATOM   1012  C1'   A A  45     -18.479  15.834  41.519  1.00  0.00     0.262 C 
ATOM   1013  N9    A A  45     -17.571  14.805  42.025  1.00  0.00    -0.294 N 
ATOM   1014  C2'   A A  45     -19.897  15.735  42.074  1.00  0.00     0.199 C 
ATOM   1015  C4    A A  45     -17.365  13.558  41.483  1.00  0.00     0.167 A 
ATOM   1016  C8    A A  45     -16.753  14.875  43.124  1.00  0.00     0.214 A 
ATOM   1017  C5    A A  45     -16.426  12.947  42.292  1.00  0.00     0.149 A 
ATOM   1018  N3    A A  45     -17.951  13.034  40.392  1.00  0.00    -0.222 NA
ATOM   1019  C6    A A  45     -16.035  11.642  41.943  1.00  0.00     0.155 A 
ATOM   1020  N7    A A  45     -16.046  13.790  43.328  1.00  0.00    -0.236 NA
ATOM   1021  N6    A A  45     -15.136  10.932  42.625  1.00  0.00    -0.382 N 
ATOM   1022  N1    A A  45     -16.604  11.085  40.853  1.00  0.00    -0.222 NA
ATOM   1023  H62   A A  45     -14.884  10.002  42.315  1.00  0.00     0.157 HD
ATOM   1024  H61   A A  45     -14.696  11.328  43.441  1.00  0.00     0.157 HD
ATOM   1025  C2    A A  45     -17.503  11.801  40.164  1.00  0.00     0.237 A 
ATOM   1026  O2'   A A  45     -20.785  16.366  41.171  1.00  0.00    -0.388 OA
ATOM   1027 'HO2   A A  45     -21.318  16.973  41.686  1.00  0.00     0.210 HD
ATOM   1028  O3'   A A  45     -21.006  17.024  43.840  1.00  0.00    -0.279 OA
ATOM   1029  P     C A  46     -21.835  16.167  44.919  1.00  0.00     0.408 P 
ATOM   1030  OP2   C A  46     -20.892  15.680  45.957  1.00  0.00    -0.624 OA
ATOM   1031  O5'   C A  46     -22.355  14.907  44.094  1.00  0.00    -0.287 OA
ATOM   1032  OP1   C A  46     -23.014  16.976  45.320  1.00  0.00    -0.624 OA
ATOM   1033  C5'   C A  46     -23.241  15.067  42.988  1.00  0.00     0.216 C 
ATOM   1034  C4'   C A  46     -23.326  13.783  42.197  1.00  0.00     0.180 C 
ATOM   1035  O4'   C A  46     -22.004  13.449  41.693  1.00  0.00    -0.353 OA
ATOM   1036  C3'   C A  46     -23.754  12.554  42.989  1.00  0.00     0.198 C 
ATOM   1037  C1'   C A  46     -21.804  12.048  41.762  1.00  0.00     0.264 C 
ATOM   1038  C2'   C A  46     -23.128  11.416  42.193  1.00  0.00     0.199 C 
ATOM   1039  N1    C A  46     -20.687  11.784  42.686  1.00  0.00    -0.278 N 
ATOM   1040  O2'   C A  46     -23.888  11.125  41.035  1.00  0.00    -0.388 OA
ATOM   1041 'HO2   C A  46     -24.746  11.532  41.158  1.00  0.00     0.210 HD
ATOM   1042  C2    C A  46     -19.940  10.615  42.525  1.00  0.00     0.352 A 
ATOM   1043  C6    C A  46     -20.379  12.668  43.683  1.00  0.00     0.102 A 
ATOM   1044  N3    C A  46     -18.910  10.367  43.364  1.00  0.00    -0.177 NA
ATOM   1045  O2    C A  46     -20.240   9.829  41.614  1.00  0.00    -0.244 OA
ATOM   1046  C4    C A  46     -18.614  11.238  44.330  1.00  0.00     0.128 A 
ATOM   1047  N4    C A  46     -17.587  10.954  45.131  1.00  0.00    -0.384 N 
ATOM   1048  C5    C A  46     -19.357  12.439  44.518  1.00  0.00     0.067 A 
ATOM   1049  H42   C A  46     -17.071  10.097  44.994  1.00  0.00     0.157 HD
ATOM   1050  H41   C A  46     -17.331  11.587  45.874  1.00  0.00     0.157 HD
ATOM   1051  O3'   C A  46     -25.172  12.451  43.065  1.00  0.00    -0.279 OA
ATOM   1052  P     G A  47     -25.849  11.587  44.241  1.00  0.00     0.408 P 
ATOM   1053  OP1   G A  47     -27.307  11.532  43.962  1.00  0.00    -0.624 OA
ATOM   1054  O5'   G A  47     -25.248  10.125  44.043  1.00  0.00    -0.287 OA
ATOM   1055  OP2   G A  47     -25.371  12.116  45.545  1.00  0.00    -0.624 OA
ATOM   1056  C5'   G A  47     -25.622   9.319  42.927  1.00  0.00     0.216 C 
ATOM   1057  C4'   G A  47     -25.090   7.914  43.097  1.00  0.00     0.180 C 
ATOM   1058  C3'   G A  47     -25.206   7.331  44.500  1.00  0.00     0.198 C 
ATOM   1059  O4'   G A  47     -23.665   7.919  42.830  1.00  0.00    -0.353 OA
ATOM   1060  C2'   G A  47     -24.089   6.292  44.523  1.00  0.00     0.199 C 
ATOM   1061  O3'   G A  47     -26.488   6.748  44.722  1.00  0.00    -0.279 OA
ATOM   1062  C1'   G A  47     -23.024   6.960  43.652  1.00  0.00     0.262 C 
ATOM   1063  O2'   G A  47     -24.498   5.092  43.895  1.00  0.00    -0.388 OA
ATOM   1064  N9    G A  47     -21.979   7.636  44.416  1.00  0.00    -0.293 N 
ATOM   1065  C8    G A  47     -21.965   8.945  44.831  1.00  0.00     0.214 A 
ATOM   1066  C4    G A  47     -20.807   7.076  44.862  1.00  0.00     0.187 A 
ATOM   1067  N7    G A  47     -20.886   9.264  45.492  1.00  0.00    -0.234 NA
ATOM   1068  C5    G A  47     -20.144   8.090  45.520  1.00  0.00     0.173 A 
ATOM   1069  C6    G A  47     -18.876   7.812  46.100  1.00  0.00     0.292 A 
ATOM   1070  O6    G A  47     -18.128   8.574  46.726  1.00  0.00    -0.265 OA
ATOM   1071  N1    G A  47     -18.498   6.490  45.892  1.00  0.00    -0.153 N 
ATOM   1072  C2    G A  47     -19.242   5.555  45.216  1.00  0.00     0.703 A 
ATOM   1073  H1    G A  47     -17.607   6.202  46.268  1.00  0.00     0.187 HD
ATOM   1074  N2    G A  47     -18.713   4.335  45.119  1.00  0.00    -0.233 N 
ATOM   1075  N3    G A  47     -20.420   5.798  44.675  1.00  0.00    -0.044 NA
ATOM   1076  H21   G A  47     -19.224   3.614  44.631  1.00  0.00     0.174 HD
ATOM   1077  H22   G A  47     -17.811   4.129  45.526  1.00  0.00     0.174 HD
ATOM   1078 'HO2   G A  47     -25.450   5.046  43.994  1.00  0.00     0.210 HD
ATOM   1079  C1'   C A  44     -12.839  17.236  43.552  1.00  0.00     0.264 C 
ATOM   1080  O2'   C A  44     -14.661  18.751  43.215  1.00  0.00    -0.388 OA
ATOM   1081  N1    C A  44     -12.491  15.804  43.541  1.00  0.00    -0.278 N 
ATOM   1082  C6    C A  44     -11.749  15.255  44.549  1.00  0.00     0.102 A 
ATOM   1083  C2    C A  44     -12.933  15.010  42.478  1.00  0.00     0.352 A 
ATOM   1084  C5    C A  44     -11.428  13.956  44.544  1.00  0.00     0.067 A 
ATOM   1085  C4    C A  44     -11.889  13.171  43.447  1.00  0.00     0.128 A 
ATOM   1086  N4    C A  44     -11.603  11.870  43.386  1.00  0.00    -0.384 N 
ATOM   1087  N3    C A  44     -12.613  13.696  42.458  1.00  0.00    -0.177 NA
ATOM   1088  H41   C A  44     -11.057  11.437  44.118  1.00  0.00     0.157 HD
ATOM   1089  H42   C A  44     -11.934  11.317  42.608  1.00  0.00     0.157 HD
ATOM   1090  O2    C A  44     -13.607  15.528  41.577  1.00  0.00    -0.244 OA
ATOM   1091 'HO2   C A  44     -15.173  19.235  43.864  1.00  0.00     0.210 HD
ATOM   1092  C1'   T A  43      -8.859  19.478  42.996  1.00  0.00     0.264 C 
ATOM   1093  O2'   T A  43      -9.157  20.919  44.884  1.00  0.00    -0.388 OA
ATOM   1094  N1    T A  43      -9.616  18.601  42.091  1.00  0.00    -0.280 N 
ATOM   1095  C2    T A  43     -10.421  19.196  41.138  1.00  0.00     0.331 A 
ATOM   1096  C6    T A  43      -9.525  17.232  42.187  1.00  0.00     0.104 A 
ATOM   1097  N3    T A  43     -11.097  18.324  40.324  1.00  0.00    -0.275 N 
ATOM   1098  O2    T A  43     -10.529  20.404  41.021  1.00  0.00    -0.246 OA
ATOM   1099  H3    T A  43     -11.695  18.734  39.624  1.00  0.00     0.173 HD
ATOM   1100  C4    T A  43     -11.051  16.950  40.363  1.00  0.00     0.250 A 
ATOM   1101  O4    T A  43     -11.713  16.299  39.556  1.00  0.00    -0.268 OA
ATOM   1102  C5    T A  43     -10.199  16.412  41.375  1.00  0.00     0.092 A 
ATOM   1103 'HO2   T A  43      -8.656  20.770  45.686  1.00  0.00     0.210 HD
ATOM   1104  C1'   A A  42      -5.597  16.971  39.918  1.00  0.00     0.262 C 
ATOM   1105  O2'   A A  42      -4.838  17.366  42.151  1.00  0.00    -0.388 OA
ATOM   1106  N9    A A  42      -6.788  17.019  39.071  1.00  0.00    -0.294 N 
ATOM   1107  C8    A A  42      -7.349  15.990  38.357  1.00  0.00     0.214 A 
ATOM   1108  C4    A A  42      -7.578  18.117  38.830  1.00  0.00     0.167 A 
ATOM   1109  N7    A A  42      -8.420  16.335  37.687  1.00  0.00    -0.236 NA
ATOM   1110  C5    A A  42      -8.576  17.682  37.978  1.00  0.00     0.149 A 
ATOM   1111  C6    A A  42      -9.528  18.633  37.572  1.00  0.00     0.155 A 
ATOM   1112  N6    A A  42     -10.542  18.359  36.752  1.00  0.00    -0.382 N 
ATOM   1113  N1    A A  42      -9.400  19.891  38.045  1.00  0.00    -0.222 NA
ATOM   1114  H61   A A  42     -10.648  17.419  36.391  1.00  0.00     0.157 HD
ATOM   1115  H62   A A  42     -11.197  19.082  36.494  1.00  0.00     0.157 HD
ATOM   1116  C2    A A  42      -8.378  20.166  38.867  1.00  0.00     0.237 A 
ATOM   1117  N3    A A  42      -7.420  19.359  39.317  1.00  0.00    -0.222 NA
ATOM   1118 'HO2   A A  42      -4.499  16.671  42.714  1.00  0.00     0.210 HD
ATOM   1119  C4    A A  41      -5.470  18.246  35.848  1.00  0.00     0.167 A 
ATOM   1120  C8    A A  41      -6.649  17.040  34.449  1.00  0.00     0.214 A 
ATOM   1121  N3    A A  41      -4.525  18.696  36.691  1.00  0.00    -0.222 NA
ATOM   1122  C5    A A  41      -6.627  18.903  35.472  1.00  0.00     0.149 A 
ATOM   1123  C2    A A  41      -4.842  19.906  37.147  1.00  0.00     0.237 A 
ATOM   1124  N1    A A  41      -5.914  20.661  36.874  1.00  0.00    -0.222 NA
ATOM   1125  C6    A A  41      -6.844  20.178  36.023  1.00  0.00     0.155 A 
ATOM   1126  N6    A A  41      -7.910  20.931  35.752  1.00  0.00    -0.382 N 
ATOM   1127  H61   A A  41      -8.617  20.591  35.116  1.00  0.00     0.157 HD
ATOM   1128  H62   A A  41      -8.006  21.839  36.183  1.00  0.00     0.157 HD
ATOM   1129  N7    A A  41      -7.365  18.130  34.586  1.00  0.00    -0.236 NA
BRANCH 1061 1130
ATOM   1130  P     T A  48     -27.320   7.112  46.051  1.00  0.00     0.408 P 
ATOM   1131  OP1   T A  48     -27.639   5.826  46.718  1.00  0.00    -0.624 OA
ATOM   1132  OP2   T A  48     -28.420   8.052  45.708  1.00  0.00    -0.624 OA
BRANCH 1130 1133
ATOM   1133  O5'   T A  48     -26.266   7.882  46.969  1.00  0.00    -0.287 OA
BRANCH 1133 1134
ATOM   1134  C5'   T A  48     -25.614   7.227  48.057  1.00  0.00     0.216 C 
BRANCH 1134 1135
ATOM   1135  C4'   T A  48     -24.241   7.819  48.271  1.00  0.00     0.180 C 
ATOM   1136  O4'   T A  48     -24.165   9.081  47.552  1.00  0.00    -0.353 OA
ATOM   1137  C1'   T A  48     -23.453  10.031  48.324  1.00  0.00     0.264 C 
ATOM   1138  N1    T A  48     -24.371  11.125  48.674  1.00  0.00    -0.280 N 
ATOM   1139  C2'   T A  48     -22.876   9.296  49.535  1.00  0.00     0.199 C 
ATOM   1140  C2    T A  48     -23.821  12.365  48.944  1.00  0.00     0.331 A 
ATOM   1141  C6    T A  48     -25.733  10.926  48.732  1.00  0.00     0.104 A 
ATOM   1142  O2    T A  48     -22.625  12.585  48.899  1.00  0.00    -0.246 OA
ATOM   1143  N3    T A  48     -24.726  13.342  49.272  1.00  0.00    -0.275 N 
ATOM   1144  H3    T A  48     -24.349  14.255  49.470  1.00  0.00     0.173 HD
ATOM   1145  C4    T A  48     -26.093  13.212  49.354  1.00  0.00     0.250 A 
ATOM   1146  O4    T A  48     -26.773  14.183  49.682  1.00  0.00    -0.268 OA
ATOM   1147  C5    T A  48     -26.585  11.904  49.055  1.00  0.00     0.092 A 
ATOM   1148  O2'   T A  48     -21.603   8.784  49.191  1.00  0.00    -0.388 OA
ATOM   1149  C3'   T A  48     -23.892   8.175  49.712  1.00  0.00     0.198 C 
ATOM   1150 'HO2   T A  48     -21.378   8.137  49.862  1.00  0.00     0.210 HD
BRANCH 1149 1151
ATOM   1151  O3'   T A  48     -23.348   7.059  50.414  1.00  0.00    -0.279 OA
BRANCH 1151 1152
ATOM   1152  P     C A  49     -22.225   6.139  49.716  1.00  0.00     0.408 P 
ATOM   1153  OP1   C A  49     -20.934   6.420  50.394  1.00  0.00    -0.624 OA
ATOM   1154  OP2   C A  49     -22.327   6.293  48.242  1.00  0.00    -0.624 OA
BRANCH 1152 1155
ATOM   1155  O5'   C A  49     -22.657   4.649  50.084  1.00  0.00    -0.287 OA
BRANCH 1155 1156
ATOM   1156  C5'   C A  49     -21.863   3.843  50.955  1.00  0.00     0.216 C 
BRANCH 1156 1157
ATOM   1157  C4'   C A  49     -21.877   2.405  50.489  1.00  0.00     0.180 C 
ATOM   1158  C3'   C A  49     -21.235   2.143  49.132  1.00  0.00     0.198 C 
ATOM   1159  C2'   C A  49     -21.950   0.876  48.679  1.00  0.00     0.199 C 
ATOM   1160  O2'   C A  49     -21.446  -0.267  49.342  1.00  0.00    -0.388 OA
ATOM   1161  C1'   C A  49     -23.368   1.151  49.180  1.00  0.00     0.264 C 
ATOM   1162 'HO2   C A  49     -20.490  -0.192  49.334  1.00  0.00     0.210 HD
ATOM   1163  N1    C A  49     -24.218   1.826  48.185  1.00  0.00    -0.278 N 
ATOM   1164  O4'   C A  49     -23.258   1.983  50.321  1.00  0.00    -0.353 OA
ATOM   1165  C2    C A  49     -25.091   1.055  47.420  1.00  0.00     0.352 A 
ATOM   1166  C6    C A  49     -24.151   3.180  48.000  1.00  0.00     0.102 A 
ATOM   1167  O2    C A  49     -25.140  -0.165  47.620  1.00  0.00    -0.244 OA
ATOM   1168  N3    C A  49     -25.860   1.656  46.484  1.00  0.00    -0.177 NA
ATOM   1169  C4    C A  49     -25.781   2.975  46.304  1.00  0.00     0.128 A 
ATOM   1170  C5    C A  49     -24.906   3.790  47.078  1.00  0.00     0.067 A 
ATOM   1171  N4    C A  49     -26.552   3.521  45.364  1.00  0.00    -0.384 N 
ATOM   1172  H42   C A  49     -27.167   2.936  44.814  1.00  0.00     0.157 HD
ATOM   1173  H41   C A  49     -26.523   4.517  45.192  1.00  0.00     0.157 HD
BRANCH 1158 1174
ATOM   1174  O3'   C A  49     -19.823   1.965  49.231  1.00  0.00    -0.279 OA
ATOM   1175  P     G A  50     -18.830   3.146  48.770  1.00  0.00     0.408 P 
ATOM   1176  O5'   G A  50     -18.082   2.553  47.493  1.00  0.00    -0.287 OA
ATOM   1177  OP1   G A  50     -17.830   3.325  49.852  1.00  0.00    -0.624 OA
ATOM   1178  OP2   G A  50     -19.644   4.309  48.327  1.00  0.00    -0.624 OA
ATOM   1179  C5'   G A  50     -17.076   1.548  47.625  1.00  0.00     0.216 C 
ATOM   1180  C4'   G A  50     -17.389   0.373  46.725  1.00  0.00     0.180 C 
ATOM   1181  C3'   G A  50     -16.984   0.532  45.266  1.00  0.00     0.198 C 
ATOM   1182  O4'   G A  50     -18.829   0.185  46.677  1.00  0.00    -0.353 OA
ATOM   1183  C2'   G A  50     -17.934  -0.428  44.559  1.00  0.00     0.199 C 
ATOM   1184  O3'   G A  50     -15.616   0.190  45.056  1.00  0.00    -0.279 OA
ATOM   1185  C1'   G A  50     -19.209  -0.248  45.382  1.00  0.00     0.262 C 
ATOM   1186  O2'   G A  50     -17.493  -1.768  44.686  1.00  0.00    -0.388 OA
ATOM   1187  N9    G A  50     -20.127   0.734  44.812  1.00  0.00    -0.293 N 
ATOM   1188  C4    G A  50     -20.676   0.699  43.554  1.00  0.00     0.187 A 
ATOM   1189  C8    G A  50     -20.611   1.869  45.413  1.00  0.00     0.214 A 
ATOM   1190  N3    G A  50     -20.463  -0.256  42.624  1.00  0.00    -0.044 NA
ATOM   1191  C5    G A  50     -21.464   1.826  43.466  1.00  0.00     0.173 A 
ATOM   1192  C2    G A  50     -21.127  -0.013  41.509  1.00  0.00     0.703 A 
ATOM   1193  N2    G A  50     -21.020  -0.854  40.477  1.00  0.00    -0.233 N 
ATOM   1194  N1    G A  50     -21.940   1.073  41.322  1.00  0.00    -0.153 N 
ATOM   1195  H21   G A  50     -20.430  -1.669  40.560  1.00  0.00     0.174 HD
ATOM   1196  H22   G A  50     -21.515  -0.668  39.617  1.00  0.00     0.174 HD
ATOM   1197  H1    G A  50     -22.402   1.155  40.431  1.00  0.00     0.187 HD
ATOM   1198  C6    G A  50     -22.175   2.069  42.262  1.00  0.00     0.292 A 
ATOM   1199  O6    G A  50     -22.930   3.011  41.986  1.00  0.00    -0.265 OA
ATOM   1200  N7    G A  50     -21.415   2.555  44.647  1.00  0.00    -0.234 NA
ATOM   1201 'HO2   G A  50     -16.536  -1.738  44.728  1.00  0.00     0.210 HD
ATOM   1202  P     G A  51     -14.763   0.950  43.921  1.00  0.00     0.408 P 
ATOM   1203  O5'   G A  51     -15.557   0.655  42.570  1.00  0.00    -0.287 OA
ATOM   1204  OP2   G A  51     -14.821   2.410  44.190  1.00  0.00    -0.624 OA
ATOM   1205  OP1   G A  51     -13.444   0.272  43.838  1.00  0.00    -0.624 OA
ATOM   1206  C5'   G A  51     -15.787  -0.684  42.131  1.00  0.00     0.216 C 
ATOM   1207  C4'   G A  51     -16.149  -0.704  40.662  1.00  0.00     0.180 C 
ATOM   1208  O4'   G A  51     -17.593  -0.644  40.511  1.00  0.00    -0.353 OA
ATOM   1209  C3'   G A  51     -15.676   0.475  39.828  1.00  0.00     0.198 C 
ATOM   1210  C1'   G A  51     -17.909  -0.007  39.281  1.00  0.00     0.262 C 
ATOM   1211  N9    G A  51     -18.763   1.145  39.554  1.00  0.00    -0.293 N 
ATOM   1212  C2'   G A  51     -16.587   0.372  38.613  1.00  0.00     0.199 C 
ATOM   1213  C4    G A  51     -19.605   1.763  38.660  1.00  0.00     0.187 A 
ATOM   1214  C8    G A  51     -18.882   1.833  40.736  1.00  0.00     0.214 A 
ATOM   1215  N3    G A  51     -19.793   1.405  37.373  1.00  0.00    -0.044 NA
ATOM   1216  C5    G A  51     -20.187   2.797  39.361  1.00  0.00     0.173 A 
ATOM   1217  C2    G A  51     -20.663   2.191  36.766  1.00  0.00     0.703 A 
ATOM   1218  N2    G A  51     -20.965   1.978  35.483  1.00  0.00    -0.233 N 
ATOM   1219  N1    G A  51     -21.300   3.244  37.370  1.00  0.00    -0.153 N 
ATOM   1220  H22   G A  51     -21.624   2.574  35.004  1.00  0.00     0.174 HD
ATOM   1221  H21   G A  51     -20.520   1.214  34.994  1.00  0.00     0.174 HD
ATOM   1222  C6    G A  51     -21.122   3.631  38.694  1.00  0.00     0.292 A 
ATOM   1223  H1    G A  51     -21.948   3.782  36.813  1.00  0.00     0.187 HD
ATOM   1224  O6    G A  51     -21.749   4.599  39.139  1.00  0.00    -0.265 OA
ATOM   1225  N7    G A  51     -19.723   2.829  40.670  1.00  0.00    -0.234 NA
ATOM   1226  O2'   G A  51     -16.190  -0.687  37.761  1.00  0.00    -0.388 OA
ATOM   1227 'HO2   G A  51     -15.235  -0.733  37.809  1.00  0.00     0.210 HD
ATOM   1228  O3'   G A  51     -14.297   0.388  39.485  1.00  0.00    -0.279 OA
ATOM   1229  P     G A  52     -13.502   1.714  39.040  1.00  0.00     0.408 P 
ATOM   1230  O5'   G A  52     -14.247   2.185  37.712  1.00  0.00    -0.287 OA
ATOM   1231  OP2   G A  52     -13.704   2.752  40.082  1.00  0.00    -0.624 OA
ATOM   1232  OP1   G A  52     -12.123   1.299  38.675  1.00  0.00    -0.624 OA
ATOM   1233  C5'   G A  52     -14.051   1.497  36.478  1.00  0.00     0.216 C 
ATOM   1234  C4'   G A  52     -15.004   2.016  35.425  1.00  0.00     0.180 C 
ATOM   1235  O4'   G A  52     -16.357   2.052  35.951  1.00  0.00    -0.353 OA
ATOM   1236  C3'   G A  52     -14.785   3.449  34.968  1.00  0.00     0.198 C 
ATOM   1237  C1'   G A  52     -17.094   3.059  35.276  1.00  0.00     0.262 C 
ATOM   1238  C2'   G A  52     -16.130   3.784  34.333  1.00  0.00     0.199 C 
ATOM   1239  N9    G A  52     -17.699   3.941  36.268  1.00  0.00    -0.293 N 
ATOM   1240  O2'   G A  52     -16.245   3.210  33.045  1.00  0.00    -0.388 OA
ATOM   1241 'HO2   G A  52     -15.364   2.939  32.784  1.00  0.00     0.210 HD
ATOM   1242  C8    G A  52     -17.421   3.999  37.613  1.00  0.00     0.214 A 
ATOM   1243  C4    G A  52     -18.665   4.890  36.033  1.00  0.00     0.187 A 
ATOM   1244  N7    G A  52     -18.121   4.899  38.246  1.00  0.00    -0.234 NA
ATOM   1245  C5    G A  52     -18.913   5.473  37.258  1.00  0.00     0.173 A 
ATOM   1246  C6    G A  52     -19.881   6.510  37.339  1.00  0.00     0.292 A 
ATOM   1247  O6    G A  52     -20.246   7.151  38.330  1.00  0.00    -0.265 OA
ATOM   1248  N1    G A  52     -20.446   6.779  36.097  1.00  0.00    -0.153 N 
ATOM   1249  C2    G A  52     -20.125   6.136  34.930  1.00  0.00     0.703 A 
ATOM   1250  H1    G A  52     -21.144   7.505  36.056  1.00  0.00     0.187 HD
ATOM   1251  N2    G A  52     -20.777   6.540  33.837  1.00  0.00    -0.233 N 
ATOM   1252  N3    G A  52     -19.230   5.169  34.840  1.00  0.00    -0.044 NA
ATOM   1253  H21   G A  52     -20.578   6.099  32.951  1.00  0.00     0.174 HD
ATOM   1254  H22   G A  52     -21.461   7.282  33.893  1.00  0.00     0.174 HD
ATOM   1255  O3'   G A  52     -13.703   3.562  34.048  1.00  0.00    -0.279 OA
ATOM   1256  P     G A  53     -12.978   4.983  33.838  1.00  0.00     0.408 P 
ATOM   1257  OP2   G A  53     -12.682   5.564  35.171  1.00  0.00    -0.624 OA
ATOM   1258  OP1   G A  53     -11.873   4.773  32.868  1.00  0.00    -0.624 OA
ATOM   1259  O5'   G A  53     -14.088   5.885  33.135  1.00  0.00    -0.287 OA
ATOM   1260  C5'   G A  53     -14.613   5.535  31.856  1.00  0.00     0.216 C 
ATOM   1261  C4'   G A  53     -15.689   6.514  31.443  1.00  0.00     0.180 C 
ATOM   1262  C3'   G A  53     -15.311   7.984  31.497  1.00  0.00     0.198 C 
ATOM   1263  O4'   G A  53     -16.808   6.428  32.365  1.00  0.00    -0.353 OA
ATOM   1264  O3'   G A  53     -14.543   8.379  30.363  1.00  0.00    -0.279 OA
ATOM   1265  C2'   G A  53     -16.677   8.658  31.543  1.00  0.00     0.199 C 
ATOM   1266  P     T A  54     -13.626   9.699  30.440  1.00  0.00     0.408 P 
ATOM   1267  OP2   T A  54     -12.838   9.655  31.698  1.00  0.00    -0.624 OA
ATOM   1268  O5'   T A  54     -14.676  10.892  30.552  1.00  0.00    -0.287 OA
ATOM   1269  OP1   T A  54     -12.923   9.824  29.138  1.00  0.00    -0.624 OA
ATOM   1270  C5'   T A  54     -15.586  11.171  29.491  1.00  0.00     0.216 C 
ATOM   1271  C4'   T A  54     -16.484  12.328  29.860  1.00  0.00     0.180 C 
ATOM   1272  O4'   T A  54     -17.294  11.962  31.008  1.00  0.00    -0.353 OA
ATOM   1273  C3'   T A  54     -15.779  13.598  30.311  1.00  0.00     0.198 C 
ATOM   1274  C1'   T A  54     -17.555  13.116  31.790  1.00  0.00     0.264 C 
ATOM   1275  N1    T A  54     -17.086  12.867  33.161  1.00  0.00    -0.280 N 
ATOM   1276  C2'   T A  54     -16.866  14.302  31.113  1.00  0.00     0.199 C 
ATOM   1277  C6    T A  54     -16.138  11.907  33.433  1.00  0.00     0.104 A 
ATOM   1278  C2    T A  54     -17.630  13.636  34.173  1.00  0.00     0.331 A 
ATOM   1279  C5    T A  54     -15.698  11.666  34.673  1.00  0.00     0.092 A 
ATOM   1280  C4    T A  54     -16.211  12.423  35.771  1.00  0.00     0.250 A 
ATOM   1281  N3    T A  54     -17.153  13.364  35.428  1.00  0.00    -0.275 N 
ATOM   1282  O4    T A  54     -15.876  12.308  36.949  1.00  0.00    -0.268 OA
ATOM   1283  H3    T A  54     -17.537  13.919  36.179  1.00  0.00     0.173 HD
ATOM   1284  O2    T A  54     -18.471  14.494  33.975  1.00  0.00    -0.246 OA
ATOM   1285  O2'   T A  54     -17.798  14.939  30.261  1.00  0.00    -0.388 OA
ATOM   1286 'HO2   T A  54     -17.398  14.973  29.391  1.00  0.00     0.210 HD
ATOM   1287  O2'   G A  53     -17.274   8.687  30.259  1.00  0.00    -0.388 OA
ATOM   1288  C1'   G A  53     -17.461   7.685  32.425  1.00  0.00     0.262 C 
ATOM   1289 'HO2   G A  53     -16.588   8.456  29.632  1.00  0.00     0.210 HD
ATOM   1290  N9    G A  53     -17.540   8.103  33.821  1.00  0.00    -0.293 N 
ATOM   1291  C8    G A  53     -16.845   7.583  34.887  1.00  0.00     0.214 A 
ATOM   1292  C4    G A  53     -18.329   9.108  34.329  1.00  0.00     0.187 A 
ATOM   1293  N7    G A  53     -17.125   8.168  36.019  1.00  0.00    -0.234 NA
ATOM   1294  C5    G A  53     -18.062   9.135  35.681  1.00  0.00     0.173 A 
ATOM   1295  C6    G A  53     -18.739  10.087  36.491  1.00  0.00     0.292 A 
ATOM   1296  O6    G A  53     -18.641  10.272  37.710  1.00  0.00    -0.265 OA
ATOM   1297  N1    G A  53     -19.603  10.874  35.740  1.00  0.00    -0.153 N 
ATOM   1298  C2    G A  53     -19.795  10.764  34.387  1.00  0.00     0.703 A 
ATOM   1299  H1    G A  53     -20.129  11.582  36.231  1.00  0.00     0.187 HD
ATOM   1300  N3    G A  53     -19.176   9.884  33.622  1.00  0.00    -0.044 NA
ATOM   1301  N2    G A  53     -20.668  11.615  33.845  1.00  0.00    -0.233 N 
ATOM   1302  H22   G A  53     -21.148  12.294  34.421  1.00  0.00     0.174 HD
ATOM   1303  H21   G A  53     -20.847  11.577  32.852  1.00  0.00     0.174 HD
BRANCH 1273 1304
ATOM   1304  O3'   T A  54     -15.328  14.375  29.204  1.00  0.00    -0.279 OA
BRANCH 1304 1305
ATOM   1305  P     C A  55     -13.780  14.801  29.105  1.00  0.00     0.408 P 
ATOM   1306  OP2   C A  55     -13.604  16.101  29.802  1.00  0.00    -0.624 OA
ATOM   1307  OP1   C A  55     -12.971  13.628  29.525  1.00  0.00    -0.624 OA
BRANCH 1305 1308
ATOM   1308  O5'   C A  55     -13.541  15.037  27.547  1.00  0.00    -0.287 OA
BRANCH 1308 1309
ATOM   1309  C5'   C A  55     -14.442  15.834  26.779  1.00  0.00     0.216 C 
BRANCH 1309 1310
ATOM   1310  C4'   C A  55     -13.674  16.714  25.820  1.00  0.00     0.180 C 
ATOM   1311  O4'   C A  55     -12.260  16.398  25.917  1.00  0.00    -0.353 OA
ATOM   1312  C1'   C A  55     -11.657  16.510  24.639  1.00  0.00     0.264 C 
ATOM   1313  N1    C A  55     -11.081  15.203  24.281  1.00  0.00    -0.278 N 
ATOM   1314  C2'   C A  55     -12.726  17.000  23.660  1.00  0.00     0.199 C 
ATOM   1315  C2    C A  55      -9.949  15.168  23.464  1.00  0.00     0.352 A 
ATOM   1316  C6    C A  55     -11.640  14.042  24.735  1.00  0.00     0.102 A 
ATOM   1317  N3    C A  55      -9.411  13.974  23.129  1.00  0.00    -0.177 NA
ATOM   1318  O2    C A  55      -9.462  16.235  23.064  1.00  0.00    -0.244 OA
ATOM   1319  C4    C A  55      -9.961  12.847  23.580  1.00  0.00     0.128 A 
ATOM   1320  N4    C A  55      -9.395  11.694  23.225  1.00  0.00    -0.384 N 
ATOM   1321  C5    C A  55     -11.117  12.851  24.415  1.00  0.00     0.067 A 
ATOM   1322  H42   C A  55      -8.574  11.704  22.636  1.00  0.00     0.157 HD
ATOM   1323  H41   C A  55      -9.780  10.817  23.545  1.00  0.00     0.157 HD
ATOM   1324  C3'   C A  55     -14.002  16.524  24.346  1.00  0.00     0.198 C 
BRANCH 1314 1325
ATOM   1325  O2'   C A  55     -12.673  18.413  23.602  1.00  0.00    -0.388 OA
ATOM   1326 'HO2   C A  55     -11.759  18.649  23.440  1.00  0.00     0.210 HD
ENDBRANCH 1314 1325
BRANCH 1324 1327
ATOM   1327  O3'   C A  55     -15.142  17.287  23.961  1.00  0.00    -0.279 OA
BRANCH 1327 1328
ATOM   1328  P     A A  56     -16.505  16.536  23.551  1.00  0.00     0.408 P 
ATOM   1329  O5'   A A  56     -16.016  15.294  22.681  1.00  0.00    -0.287 OA
ATOM   1330  C5'   A A  56     -15.333  15.487  21.443  1.00  0.00     0.216 C 
ATOM   1331  C4'   A A  56     -15.217  14.175  20.700  1.00  0.00     0.180 C 
ATOM   1332  O4'   A A  56     -14.065  13.449  21.204  1.00  0.00    -0.353 OA
ATOM   1333  C3'   A A  56     -16.382  13.213  20.884  1.00  0.00     0.182 C 
ATOM   1334  C1'   A A  56     -14.345  12.061  21.222  1.00  0.00     0.262 C 
ATOM   1335  N9    A A  56     -14.231  11.588  22.600  1.00  0.00    -0.294 N 
ATOM   1336  C2'   A A  56     -15.735  11.858  20.616  1.00  0.00     0.198 C 
ATOM   1337  C4    A A  56     -13.614  10.433  23.016  1.00  0.00     0.167 A 
ATOM   1338  C8    A A  56     -14.710  12.188  23.739  1.00  0.00     0.214 A 
ATOM   1339  C5    A A  56     -13.761  10.400  24.390  1.00  0.00     0.149 A 
ATOM   1340  N3    A A  56     -12.995   9.517  22.250  1.00  0.00    -0.222 NA
ATOM   1341  C6    A A  56     -13.209   9.298  25.065  1.00  0.00     0.155 A 
ATOM   1342  N7    A A  56     -14.456  11.517  24.836  1.00  0.00    -0.236 NA
ATOM   1343  N1    A A  56     -12.580   8.360  24.325  1.00  0.00    -0.222 NA
ATOM   1344  N6    A A  56     -13.274   9.128  26.385  1.00  0.00    -0.382 N 
ATOM   1345  C2    A A  56     -12.515   8.527  22.998  1.00  0.00     0.237 A 
ATOM   1346  H61   A A  56     -13.741   9.814  26.960  1.00  0.00     0.157 HD
ATOM   1347  H62   A A  56     -12.850   8.314  26.806  1.00  0.00     0.157 HD
ATOM   1348  O2'   A A  56     -15.596  11.623  19.227  1.00  0.00    -0.388 OA
ATOM   1349 'HO2   A A  56     -16.291  12.116  18.790  1.00  0.00     0.210 HD
ATOM   1350  O3'   A A  56     -17.463  13.491  19.986  1.00  0.00    -0.390 OA
ATOM   1351 'HO3   A A  56     -17.717  14.406  20.125  1.00  0.00     0.210 HD
ATOM   1352  OP2   A A  56     -17.146  16.015  24.784  1.00  0.00    -0.624 OA
ATOM   1353  OP1   A A  56     -17.263  17.451  22.660  1.00  0.00    -0.624 OA
ENDBRANCH 1327 1328
ENDBRANCH 1324 1327
ENDBRANCH 1309 1310
ENDBRANCH 1308 1309
ENDBRANCH 1305 1308
ENDBRANCH 1304 1305
ENDBRANCH 1273 1304
ENDBRANCH 1158 1174
ENDBRANCH 1156 1157
ENDBRANCH 1155 1156
ENDBRANCH 1152 1155
ENDBRANCH 1151 1152
ENDBRANCH 1149 1151
ENDBRANCH 1134 1135
ENDBRANCH 1133 1134
ENDBRANCH 1130 1133
ENDBRANCH 1061 1130
ENDBRANCH 964 965
ENDBRANCH 963 964
ENDBRANCH 960 963
ENDBRANCH 959 960
ENDBRANCH 939 959
ENDBRANCH 937 938
ENDBRANCH 936 937
ENDBRANCH 933 936
ENDBRANCH 932 933
ENDBRANCH 844 932
BRANCH 927 1354
ATOM   1354  N4    C A  33       0.794 -10.055  38.918  1.00  0.00    -0.384 N 
ATOM   1355  H42   C A  33       1.762  -9.871  39.140  1.00  0.00     0.157 HD
ATOM   1356  H41   C A  33       0.296 -10.789  39.401  1.00  0.00     0.157 HD
ENDBRANCH 927 1354
ENDBRANCH 742 743
ENDBRANCH 741 742
ENDBRANCH 738 741
ENDBRANCH 737 738
ENDBRANCH 703 737
ENDBRANCH 665 666
ENDBRANCH 664 665
ENDBRANCH 661 664
ENDBRANCH 660 661
ENDBRANCH 640 660
ENDBRANCH 638 639
ENDBRANCH 637 638
ENDBRANCH 634 637
ENDBRANCH 633 634
ENDBRANCH 588 633
BRANCH 561 1357
ATOM   1357  O2'   A A  24       1.989   5.185  22.217  1.00  0.00    -0.388 OA
ATOM   1358 'HO2   A A  24       2.942   5.174  22.115  1.00  0.00     0.210 HD
ENDBRANCH 561 1357
BRANCH 631 1359
ATOM   1359  N9    A A  24       0.077   2.640  24.007  1.00  0.00    -0.294 N 
ATOM   1360  C8    A A  24      -1.166   3.115  24.348  1.00  0.00     0.214 A 
ATOM   1361  N7    A A  24      -1.745   2.436  25.309  1.00  0.00    -0.236 NA
ATOM   1362  C5    A A  24      -0.823   1.448  25.622  1.00  0.00     0.149 A 
ATOM   1363  C4    A A  24       0.304   1.562  24.828  1.00  0.00     0.167 A 
ATOM   1364  C6    A A  24      -0.837   0.402  26.562  1.00  0.00     0.155 A 
ATOM   1365  N3    A A  24       1.394   0.776  24.859  1.00  0.00    -0.222 NA
ATOM   1366  C2    A A  24       1.262  -0.173  25.783  1.00  0.00     0.237 A 
ATOM   1367  N1    A A  24       0.241  -0.406  26.617  1.00  0.00    -0.222 NA
ATOM   1368  N6    A A  24      -1.851   0.167  27.394  1.00  0.00    -0.382 N 
ATOM   1369  H62   A A  24      -1.791  -0.603  28.046  1.00  0.00     0.157 HD
ATOM   1370  H61   A A  24      -2.671   0.757  27.373  1.00  0.00     0.157 HD
ENDBRANCH 631 1359
ENDBRANCH 557 558
ENDBRANCH 556 557
ENDBRANCH 553 556
ENDBRANCH 552 553
ENDBRANCH 534 552
BRANCH 535 1371
ATOM   1371  O2'   G A  23       7.501  -0.558  27.899  1.00  0.00    -0.388 OA
ATOM   1372 'HO2   G A  23       7.770   0.053  27.212  1.00  0.00     0.210 HD
ENDBRANCH 535 1371
ENDBRANCH 532 533
ENDBRANCH 531 532
ENDBRANCH 499 531
ENDBRANCH 484 485
ENDBRANCH 483 484
ENDBRANCH 480 483
ENDBRANCH 479 480
ENDBRANCH 465 479
BRANCH 467 1373
ATOM   1373  O2'   C A  20       0.477  13.674  37.077  1.00  0.00    -0.388 OA
ATOM   1374 'HO2   C A  20      -0.469  13.707  36.931  1.00  0.00     0.210 HD
ENDBRANCH 467 1373
ENDBRANCH 462 463
ENDBRANCH 459 462
ENDBRANCH 458 459
ENDBRANCH 446 458
ENDBRANCH 441 442
ENDBRANCH 425 441
ENDBRANCH 299 300
ENDBRANCH 298 299
ENDBRANCH 295 298
ENDBRANCH 294 295
ENDBRANCH 291 294
ENDBRANCH 272 273
ENDBRANCH 271 272
ENDBRANCH 268 271
ENDBRANCH 267 268
ENDBRANCH 254 267
ENDBRANCH 249 250
ENDBRANCH 248 249
ENDBRANCH 245 248
ENDBRANCH 244 245
ENDBRANCH 227 244
ENDBRANCH 222 223
ENDBRANCH 206 222
ENDBRANCH 195 196
ENDBRANCH 194 195
ENDBRANCH 191 194
ENDBRANCH 190 191
ENDBRANCH 179 190
ENDBRANCH 173 174
ENDBRANCH 172 173
ENDBRANCH 169 172
ENDBRANCH 168 169
ENDBRANCH 167 168
TORSDOF 435
ENDMDL
MODEL 4
REMARK VINA RESULT:      -2.3      5.539     13.594
REMARK WARNING: 32 MAX_TORS EXCEEDED!!!
REMARK  104 active torsions:
REMARK  status: ('A' for Active; 'I' for Inactive)
REMARK       I    between atoms: O5'_2  and  C5'_3 
REMARK       I    between atoms: C5'_3  and  C4'_4 
REMARK       I    between atoms: C1'_6  and  N9_7 
REMARK       I    between atoms: C2_10  and  N2_11 
REMARK       I    between atoms: C2'_21  and  O2'_22 
REMARK       I    between atoms: C3'_24  and  O3'_25 
REMARK       I    between atoms: O3'_25  and  P_26 
REMARK       I    between atoms: P_26  and  O5'_29 
REMARK       I    between atoms: O5'_29  and  C5'_30 
REMARK       I    between atoms: C5'_30  and  C4'_31 
REMARK       I    between atoms: C1'_33  and  N9_34 
REMARK       I    between atoms: C6_39  and  N6_40 
REMARK       I    between atoms: C2'_46  and  O2'_47 
REMARK       I    between atoms: C3'_49  and  O3'_50 
REMARK       I    between atoms: O3'_50  and  P_51 
REMARK       I    between atoms: P_51  and  O5'_54 
REMARK       I    between atoms: O5'_54  and  C5'_55 
REMARK       I    between atoms: C5'_55  and  C4'_56 
REMARK       I    between atoms: C1'_58  and  N1_59 
REMARK       I    between atoms: C4_64  and  N4_65 
REMARK       I    between atoms: C2'_69  and  O2'_70 
REMARK       I    between atoms: C3'_72  and  O3'_73 
REMARK       I    between atoms: O3'_73  and  P_74 
REMARK       I    between atoms: P_74  and  O5'_77 
REMARK       I    between atoms: O5'_77  and  C5'_78 
REMARK       I    between atoms: C5'_78  and  C4'_79 
REMARK       I    between atoms: C1'_81  and  N1_82 
REMARK       I    between atoms: C4_87  and  N4_88 
REMARK       I    between atoms: C2'_92  and  O2'_93 
REMARK       I    between atoms: C3'_95  and  O3'_96 
REMARK       I    between atoms: O3'_96  and  P_97 
REMARK       I    between atoms: P_97  and  O5'_100 
REMARK       I    between atoms: O5'_100  and  C5'_101 
REMARK       I    between atoms: C5'_101  and  C4'_102 
REMARK       I    between atoms: C1'_104  and  N1_105 
REMARK       I    between atoms: C2'_114  and  O2'_115 
REMARK       I    between atoms: C3'_117  and  O3'_118 
REMARK       I    between atoms: O3'_118  and  P_119 
REMARK       I    between atoms: P_119  and  O5'_122 
REMARK       I    between atoms: O5'_122  and  C5'_123 
REMARK       I    between atoms: C5'_123  and  C4'_124 
REMARK       I    between atoms: C1'_126  and  N1_127 
REMARK       I    between atoms: C4_132  and  N4_133 
REMARK       I    between atoms: C2'_137  and  O2'_138 
REMARK       I    between atoms: C3'_140  and  O3'_141 
REMARK       I    between atoms: O3'_141  and  P_142 
REMARK       I    between atoms: P_142  and  O5'_145 
REMARK       I    between atoms: O5'_145  and  C5'_146 
REMARK       I    between atoms: C5'_146  and  C4'_147 
REMARK       I    between atoms: C1'_149  and  N9_150 
REMARK       I    between atoms: C2_153  and  N2_154 
REMARK       I    between atoms: C2'_164  and  O2'_165 
REMARK    1  A    between atoms: C3'_167  and  O3'_168 
REMARK    2  A    between atoms: O3'_168  and  P_169 
REMARK    3  A    between atoms: P_169  and  O5'_172 
REMARK    4  A    between atoms: O5'_172  and  C5'_173 
REMARK    5  A    between atoms: C5'_173  and  C4'_174 
REMARK       I    between atoms: C1'_176  and  N1_177 
REMARK    6  A    between atoms: C2'_186  and  O2'_187 
REMARK    7  A    between atoms: C3'_189  and  O3'_190 
REMARK    8  A    between atoms: O3'_190  and  P_191 
REMARK    9  A    between atoms: P_191  and  O5'_194 
REMARK   10  A    between atoms: O5'_194  and  C5'_195 
REMARK   11  A    between atoms: C5'_195  and  C4'_196 
REMARK       I    between atoms: C1'_198  and  N9_199 
REMARK       I    between atoms: C2_202  and  N2_203 
REMARK   12  A    between atoms: C2'_213  and  O2'_214 
REMARK       I    between atoms: C3'_216  and  O3'_217 
REMARK       I    between atoms: O3'_217  and  P_218 
REMARK       I    between atoms: P_218  and  O5'_221 
REMARK   13  A    between atoms: O5'_221  and  C5'_222 
REMARK   14  A    between atoms: C5'_222  and  C4'_223 
REMARK   15  A    between atoms: C1'_225  and  N9_226 
REMARK       I    between atoms: C2_229  and  N2_230 
REMARK   16  A    between atoms: C2'_240  and  O2'_241 
REMARK   17  A    between atoms: C3'_243  and  O3'_244 
REMARK   18  A    between atoms: O3'_244  and  P_245 
REMARK   19  A    between atoms: P_245  and  O5'_248 
REMARK   20  A    between atoms: O5'_248  and  C5'_249 
REMARK   21  A    between atoms: C5'_249  and  C4'_250 
REMARK   22  A    between atoms: C1'_252  and  N1_253 
REMARK       I    between atoms: C4_258  and  N4_259 
REMARK   23  A    between atoms: C2'_263  and  O2'_264 
REMARK   24  A    between atoms: C3'_266  and  O3'_267 
REMARK   25  A    between atoms: O3'_267  and  P_268 
REMARK   26  A    between atoms: P_268  and  O5'_271 
REMARK   27  A    between atoms: O5'_271  and  C5'_272 
REMARK   28  A    between atoms: C5'_272  and  C4'_273 
REMARK       I    between atoms: C1'_275  and  N9_276 
REMARK       I    between atoms: C2_279  and  N2_280 
REMARK   29  A    between atoms: C2'_290  and  O2'_291 
REMARK   30  A    between atoms: C3'_293  and  O3'_294 
REMARK   31  A    between atoms: O3'_294  and  P_295 
REMARK   32  A    between atoms: P_295  and  O5'_298 
REMARK   33  A    between atoms: O5'_298  and  C5'_299 
REMARK   34  A    between atoms: C5'_299  and  C4'_300 
REMARK       I    between atoms: C1'_302  and  N1_303 
REMARK       I    between atoms: C2'_312  and  O2'_313 
REMARK       I    between atoms: C3'_315  and  O3'_316 
REMARK       I    between atoms: O3'_316  and  P_317 
REMARK       I    between atoms: P_317  and  O5'_320 
REMARK       I    between atoms: O5'_320  and  C5'_321 
REMARK       I    between atoms: C5'_321  and  C4'_322 
REMARK       I    between atoms: C1'_324  and  N1_325 
REMARK       I    between atoms: C4_330  and  N4_331 
REMARK       I    between atoms: C2'_335  and  O2'_336 
REMARK       I    between atoms: C3'_338  and  O3'_339 
REMARK       I    between atoms: O3'_339  and  P_340 
REMARK       I    between atoms: P_340  and  O5'_343 
REMARK       I    between atoms: O5'_343  and  C5'_344 
REMARK       I    between atoms: C5'_344  and  C4'_345 
REMARK       I    between atoms: C1'_347  and  N1_348 
REMARK       I    between atoms: C2'_357  and  O2'_358 
REMARK       I    between atoms: C3'_360  and  O3'_361 
REMARK       I    between atoms: O3'_361  and  P_362 
REMARK       I    between atoms: P_362  and  O5'_365 
REMARK       I    between atoms: O5'_365  and  C5'_366 
REMARK       I    between atoms: C5'_366  and  C4'_367 
REMARK       I    between atoms: C1'_369  and  N9_370 
REMARK       I    between atoms: C2_373  and  N2_374 
REMARK       I    between atoms: C2'_384  and  O2'_385 
REMARK       I    between atoms: C3'_387  and  O3'_388 
REMARK       I    between atoms: O3'_388  and  P_389 
REMARK       I    between atoms: P_389  and  O5'_392 
REMARK       I    between atoms: O5'_392  and  C5'_393 
REMARK       I    between atoms: C5'_393  and  C4'_394 
REMARK       I    between atoms: C1'_396  and  N9_397 
REMARK       I    between atoms: C6_402  and  N6_403 
REMARK       I    between atoms: C2'_409  and  O2'_410 
REMARK       I    between atoms: C3'_412  and  O3'_413 
REMARK       I    between atoms: O3'_413  and  P_414 
REMARK       I    between atoms: P_414  and  O5'_417 
REMARK       I    between atoms: O5'_417  and  C5'_418 
REMARK       I    between atoms: C5'_418  and  C4'_419 
REMARK       I    between atoms: C1'_421  and  N1_422 
REMARK       I    between atoms: C4_427  and  N4_428 
REMARK       I    between atoms: C2'_432  and  O2'_433 
REMARK       I    between atoms: C3'_435  and  O3'_436 
REMARK       I    between atoms: O3'_436  and  P_437 
REMARK       I    between atoms: P_437  and  O5'_440 
REMARK   35  A    between atoms: O5'_440  and  C5'_441 
REMARK   36  A    between atoms: C5'_441  and  C4'_442 
REMARK   37  A    between atoms: C1'_444  and  N1_445 
REMARK   38  A    between atoms: C2'_454  and  O2'_455 
REMARK   39  A    between atoms: C3'_457  and  O3'_458 
REMARK   40  A    between atoms: O3'_458  and  P_459 
REMARK   41  A    between atoms: P_459  and  O5'_462 
REMARK   42  A    between atoms: O5'_462  and  C5'_463 
REMARK       I    between atoms: C5'_463  and  C4'_464 
REMARK       I    between atoms: C1'_466  and  N1_467 
REMARK       I    between atoms: C4_472  and  N4_473 
REMARK   43  A    between atoms: C2'_477  and  O2'_478 
REMARK   44  A    between atoms: C3'_480  and  O3'_481 
REMARK   45  A    between atoms: O3'_481  and  P_482 
REMARK   46  A    between atoms: P_482  and  O5'_485 
REMARK   47  A    between atoms: O5'_485  and  C5'_486 
REMARK   48  A    between atoms: C5'_486  and  C4'_487 
REMARK       I    between atoms: C1'_489  and  N1_490 
REMARK       I    between atoms: C4_495  and  N4_496 
REMARK       I    between atoms: C2'_500  and  O2'_501 
REMARK       I    between atoms: C3'_503  and  O3'_504 
REMARK       I    between atoms: O3'_504  and  P_505 
REMARK       I    between atoms: P_505  and  O5'_508 
REMARK       I    between atoms: O5'_508  and  C5'_509 
REMARK       I    between atoms: C5'_509  and  C4'_510 
REMARK       I    between atoms: C1'_512  and  N9_513 
REMARK       I    between atoms: C6_518  and  N6_519 
REMARK       I    between atoms: C2'_525  and  O2'_526 
REMARK       I    between atoms: C3'_528  and  O3'_529 
REMARK       I    between atoms: O3'_529  and  P_530 
REMARK   49  A    between atoms: P_530  and  O5'_533 
REMARK   50  A    between atoms: O5'_533  and  C5'_534 
REMARK   51  A    between atoms: C5'_534  and  C4'_535 
REMARK       I    between atoms: C1'_537  and  N9_538 
REMARK       I    between atoms: C2_541  and  N2_542 
REMARK   52  A    between atoms: C2'_552  and  O2'_553 
REMARK   53  A    between atoms: C3'_555  and  O3'_556 
REMARK   54  A    between atoms: O3'_556  and  P_557 
REMARK   55  A    between atoms: P_557  and  O5'_560 
REMARK   56  A    between atoms: O5'_560  and  C5'_561 
REMARK   57  A    between atoms: C5'_561  and  C4'_562 
REMARK   58  A    between atoms: C1'_564  and  N9_565 
REMARK       I    between atoms: C6_570  and  N6_571 
REMARK   59  A    between atoms: C2'_577  and  O2'_578 
REMARK       I    between atoms: C3'_580  and  O3'_581 
REMARK       I    between atoms: O3'_581  and  P_582 
REMARK       I    between atoms: P_582  and  O5'_585 
REMARK       I    between atoms: O5'_585  and  C5'_586 
REMARK       I    between atoms: C5'_586  and  C4'_587 
REMARK       I    between atoms: C1'_589  and  N1_590 
REMARK       I    between atoms: C2'_599  and  O2'_600 
REMARK       I    between atoms: C3'_602  and  O3'_603 
REMARK       I    between atoms: O3'_603  and  P_604 
REMARK       I    between atoms: P_604  and  O5'_607 
REMARK       I    between atoms: O5'_607  and  C5'_608 
REMARK       I    between atoms: C5'_608  and  C4'_609 
REMARK       I    between atoms: C1'_611  and  N1_612 
REMARK       I    between atoms: C4_617  and  N4_618 
REMARK       I    between atoms: C2'_622  and  O2'_623 
REMARK       I    between atoms: C3'_625  and  O3'_626 
REMARK       I    between atoms: O3'_626  and  P_627 
REMARK       I    between atoms: P_627  and  O5'_630 
REMARK       I    between atoms: O5'_630  and  C5'_631 
REMARK       I    between atoms: C5'_631  and  C4'_632 
REMARK       I    between atoms: C1'_634  and  N9_635 
REMARK       I    between atoms: C6_640  and  N6_641 
REMARK       I    between atoms: C2'_647  and  O2'_648 
REMARK   60  A    between atoms: C3'_650  and  O3'_651 
REMARK   61  A    between atoms: O3'_651  and  P_652 
REMARK   62  A    between atoms: P_652  and  O5'_655 
REMARK   63  A    between atoms: O5'_655  and  C5'_656 
REMARK   64  A    between atoms: C5'_656  and  C4'_657 
REMARK       I    between atoms: C1'_659  and  N9_660 
REMARK       I    between atoms: C2_663  and  N2_664 
REMARK       I    between atoms: C2'_674  and  O2'_675 
REMARK   65  A    between atoms: C3'_677  and  O3'_678 
REMARK   66  A    between atoms: O3'_678  and  P_679 
REMARK   67  A    between atoms: P_679  and  O5'_682 
REMARK   68  A    between atoms: O5'_682  and  C5'_683 
REMARK   69  A    between atoms: C5'_683  and  C4'_684 
REMARK       I    between atoms: C1'_686  and  N9_687 
REMARK       I    between atoms: C6_692  and  N6_693 
REMARK       I    between atoms: C2'_699  and  O2'_700 
REMARK       I    between atoms: C3'_702  and  O3'_703 
REMARK       I    between atoms: O3'_703  and  P_704 
REMARK       I    between atoms: P_704  and  O5'_707 
REMARK       I    between atoms: O5'_707  and  C5'_708 
REMARK       I    between atoms: C5'_708  and  C4'_709 
REMARK       I    between atoms: C1'_711  and  N9_712 
REMARK       I    between atoms: C6_717  and  N6_718 
REMARK       I    between atoms: C2'_724  and  O2'_725 
REMARK       I    between atoms: C3'_727  and  O3'_728 
REMARK       I    between atoms: O3'_728  and  P_729 
REMARK       I    between atoms: P_729  and  O5'_732 
REMARK       I    between atoms: O5'_732  and  C5'_733 
REMARK       I    between atoms: C5'_733  and  C4'_734 
REMARK       I    between atoms: C1'_736  and  N9_737 
REMARK       I    between atoms: C2_740  and  N2_741 
REMARK       I    between atoms: C2'_751  and  O2'_752 
REMARK   70  A    between atoms: C3'_754  and  O3'_755 
REMARK   71  A    between atoms: O3'_755  and  P_756 
REMARK   72  A    between atoms: P_756  and  O5'_759 
REMARK   73  A    between atoms: O5'_759  and  C5'_760 
REMARK   74  A    between atoms: C5'_760  and  C4'_761 
REMARK       I    between atoms: C1'_763  and  N9_764 
REMARK       I    between atoms: C2_767  and  N2_768 
REMARK       I    between atoms: C2'_778  and  O2'_779 
REMARK       I    between atoms: C3'_781  and  O3'_782 
REMARK       I    between atoms: O3'_782  and  P_783 
REMARK       I    between atoms: P_783  and  O5'_786 
REMARK       I    between atoms: O5'_786  and  C5'_787 
REMARK       I    between atoms: C5'_787  and  C4'_788 
REMARK       I    between atoms: C1'_790  and  N1_791 
REMARK   75  A    between atoms: C4_796  and  N4_797 
REMARK       I    between atoms: C2'_801  and  O2'_802 
REMARK       I    between atoms: C3'_804  and  O3'_805 
REMARK       I    between atoms: O3'_805  and  P_806 
REMARK       I    between atoms: P_806  and  O5'_809 
REMARK       I    between atoms: O5'_809  and  C5'_810 
REMARK       I    between atoms: C5'_810  and  C4'_811 
REMARK       I    between atoms: C1'_813  and  N1_814 
REMARK       I    between atoms: C2'_823  and  O2'_824 
REMARK       I    between atoms: C3'_826  and  O3'_827 
REMARK       I    between atoms: O3'_827  and  P_828 
REMARK       I    between atoms: P_828  and  O5'_831 
REMARK       I    between atoms: O5'_831  and  C5'_832 
REMARK       I    between atoms: C5'_832  and  C4'_833 
REMARK       I    between atoms: C1'_835  and  N9_836 
REMARK       I    between atoms: C2_839  and  N2_840 
REMARK       I    between atoms: C2'_850  and  O2'_851 
REMARK       I    between atoms: C3'_853  and  O3'_854 
REMARK       I    between atoms: O3'_854  and  P_855 
REMARK       I    between atoms: P_855  and  O5'_858 
REMARK       I    between atoms: O5'_858  and  C5'_859 
REMARK       I    between atoms: C5'_859  and  C4'_860 
REMARK       I    between atoms: C1'_862  and  N1_863 
REMARK       I    between atoms: C4_868  and  N4_869 
REMARK       I    between atoms: C2'_873  and  O2'_874 
REMARK       I    between atoms: C3'_876  and  O3'_877 
REMARK       I    between atoms: O3'_877  and  P_878 
REMARK       I    between atoms: P_878  and  O5'_881 
REMARK       I    between atoms: O5'_881  and  C5'_882 
REMARK       I    between atoms: C5'_882  and  C4'_883 
REMARK       I    between atoms: C1'_885  and  N9_886 
REMARK       I    between atoms: C2_889  and  N2_890 
REMARK       I    between atoms: C2'_900  and  O2'_901 
REMARK       I    between atoms: C3'_903  and  O3'_904 
REMARK       I    between atoms: O3'_904  and  P_905 
REMARK       I    between atoms: P_905  and  O5'_908 
REMARK       I    between atoms: O5'_908  and  C5'_909 
REMARK       I    between atoms: C5'_909  and  C4'_910 
REMARK       I    between atoms: C1'_912  and  N1_913 
REMARK       I    between atoms: C2'_922  and  O2'_923 
REMARK       I    between atoms: C3'_925  and  O3'_926 
REMARK       I    between atoms: O3'_926  and  P_927 
REMARK       I    between atoms: P_927  and  O5'_930 
REMARK       I    between atoms: O5'_930  and  C5'_931 
REMARK       I    between atoms: C5'_931  and  C4'_932 
REMARK       I    between atoms: C1'_934  and  N9_935 
REMARK       I    between atoms: C2_938  and  N2_939 
REMARK   76  A    between atoms: C2'_949  and  O2'_950 
REMARK   77  A    between atoms: C3'_952  and  O3'_953 
REMARK   78  A    between atoms: O3'_953  and  P_954 
REMARK   79  A    between atoms: P_954  and  O5'_957 
REMARK   80  A    between atoms: O5'_957  and  C5'_958 
REMARK   81  A    between atoms: C5'_958  and  C4'_959 
REMARK       I    between atoms: C1'_961  and  N9_962 
REMARK       I    between atoms: C2_965  and  N2_966 
REMARK       I    between atoms: C2'_976  and  O2'_977 
REMARK   82  A    between atoms: C3'_979  and  O3'_980 
REMARK   83  A    between atoms: O3'_980  and  P_981 
REMARK   84  A    between atoms: P_981  and  O5'_984 
REMARK   85  A    between atoms: O5'_984  and  C5'_985 
REMARK   86  A    between atoms: C5'_985  and  C4'_986 
REMARK       I    between atoms: C1'_988  and  N9_989 
REMARK       I    between atoms: C6_994  and  N6_995 
REMARK       I    between atoms: C2'_1001  and  O2'_1002 
REMARK       I    between atoms: C3'_1004  and  O3'_1005 
REMARK       I    between atoms: O3'_1005  and  P_1006 
REMARK       I    between atoms: P_1006  and  O5'_1009 
REMARK       I    between atoms: O5'_1009  and  C5'_1010 
REMARK       I    between atoms: C5'_1010  and  C4'_1011 
REMARK       I    between atoms: C1'_1013  and  N9_1014 
REMARK       I    between atoms: C6_1019  and  N6_1020 
REMARK       I    between atoms: C2'_1026  and  O2'_1027 
REMARK       I    between atoms: C3'_1029  and  O3'_1030 
REMARK       I    between atoms: O3'_1030  and  P_1031 
REMARK       I    between atoms: P_1031  and  O5'_1034 
REMARK       I    between atoms: O5'_1034  and  C5'_1035 
REMARK       I    between atoms: C5'_1035  and  C4'_1036 
REMARK       I    between atoms: C1'_1038  and  N1_1039 
REMARK       I    between atoms: C2'_1048  and  O2'_1049 
REMARK       I    between atoms: C3'_1051  and  O3'_1052 
REMARK       I    between atoms: O3'_1052  and  P_1053 
REMARK       I    between atoms: P_1053  and  O5'_1056 
REMARK       I    between atoms: O5'_1056  and  C5'_1057 
REMARK       I    between atoms: C5'_1057  and  C4'_1058 
REMARK       I    between atoms: C1'_1060  and  N1_1061 
REMARK       I    between atoms: C4_1066  and  N4_1067 
REMARK       I    between atoms: C2'_1071  and  O2'_1072 
REMARK       I    between atoms: C3'_1074  and  O3'_1075 
REMARK       I    between atoms: O3'_1075  and  P_1076 
REMARK       I    between atoms: P_1076  and  O5'_1079 
REMARK       I    between atoms: O5'_1079  and  C5'_1080 
REMARK       I    between atoms: C5'_1080  and  C4'_1081 
REMARK       I    between atoms: C1'_1083  and  N9_1084 
REMARK       I    between atoms: C6_1089  and  N6_1090 
REMARK       I    between atoms: C2'_1096  and  O2'_1097 
REMARK       I    between atoms: C3'_1099  and  O3'_1100 
REMARK       I    between atoms: O3'_1100  and  P_1101 
REMARK       I    between atoms: P_1101  and  O5'_1104 
REMARK       I    between atoms: O5'_1104  and  C5'_1105 
REMARK       I    between atoms: C5'_1105  and  C4'_1106 
REMARK       I    between atoms: C1'_1108  and  N1_1109 
REMARK       I    between atoms: C4_1114  and  N4_1115 
REMARK       I    between atoms: C2'_1119  and  O2'_1120 
REMARK       I    between atoms: C3'_1122  and  O3'_1123 
REMARK       I    between atoms: O3'_1123  and  P_1124 
REMARK       I    between atoms: P_1124  and  O5'_1127 
REMARK       I    between atoms: O5'_1127  and  C5'_1128 
REMARK       I    between atoms: C5'_1128  and  C4'_1129 
REMARK       I    between atoms: C1'_1131  and  N9_1132 
REMARK       I    between atoms: C2_1135  and  N2_1136 
REMARK       I    between atoms: C2'_1146  and  O2'_1147 
REMARK       I    between atoms: C3'_1149  and  O3'_1150 
REMARK   87  A    between atoms: O3'_1150  and  P_1151 
REMARK   88  A    between atoms: P_1151  and  O5'_1154 
REMARK   89  A    between atoms: O5'_1154  and  C5'_1155 
REMARK   90  A    between atoms: C5'_1155  and  C4'_1156 
REMARK       I    between atoms: C1'_1158  and  N1_1159 
REMARK       I    between atoms: C2'_1168  and  O2'_1169 
REMARK   91  A    between atoms: C3'_1171  and  O3'_1172 
REMARK   92  A    between atoms: O3'_1172  and  P_1173 
REMARK   93  A    between atoms: P_1173  and  O5'_1176 
REMARK   94  A    between atoms: O5'_1176  and  C5'_1177 
REMARK   95  A    between atoms: C5'_1177  and  C4'_1178 
REMARK       I    between atoms: C1'_1180  and  N1_1181 
REMARK       I    between atoms: C4_1186  and  N4_1187 
REMARK       I    between atoms: C2'_1191  and  O2'_1192 
REMARK   96  A    between atoms: C3'_1194  and  O3'_1195 
REMARK       I    between atoms: O3'_1195  and  P_1196 
REMARK       I    between atoms: P_1196  and  O5'_1199 
REMARK       I    between atoms: O5'_1199  and  C5'_1200 
REMARK       I    between atoms: C5'_1200  and  C4'_1201 
REMARK       I    between atoms: C1'_1203  and  N9_1204 
REMARK       I    between atoms: C2_1207  and  N2_1208 
REMARK       I    between atoms: C2'_1218  and  O2'_1219 
REMARK       I    between atoms: C3'_1221  and  O3'_1222 
REMARK       I    between atoms: O3'_1222  and  P_1223 
REMARK       I    between atoms: P_1223  and  O5'_1226 
REMARK       I    between atoms: O5'_1226  and  C5'_1227 
REMARK       I    between atoms: C5'_1227  and  C4'_1228 
REMARK       I    between atoms: C1'_1230  and  N9_1231 
REMARK       I    between atoms: C2_1234  and  N2_1235 
REMARK       I    between atoms: C2'_1245  and  O2'_1246 
REMARK       I    between atoms: C3'_1248  and  O3'_1249 
REMARK       I    between atoms: O3'_1249  and  P_1250 
REMARK       I    between atoms: P_1250  and  O5'_1253 
REMARK       I    between atoms: O5'_1253  and  C5'_1254 
REMARK       I    between atoms: C5'_1254  and  C4'_1255 
REMARK       I    between atoms: C1'_1257  and  N9_1258 
REMARK       I    between atoms: C2_1261  and  N2_1262 
REMARK       I    between atoms: C2'_1272  and  O2'_1273 
REMARK       I    between atoms: C3'_1275  and  O3'_1276 
REMARK       I    between atoms: O3'_1276  and  P_1277 
REMARK       I    between atoms: P_1277  and  O5'_1280 
REMARK       I    between atoms: O5'_1280  and  C5'_1281 
REMARK       I    between atoms: C5'_1281  and  C4'_1282 
REMARK       I    between atoms: C1'_1284  and  N9_1285 
REMARK       I    between atoms: C2_1288  and  N2_1289 
REMARK       I    between atoms: C2'_1299  and  O2'_1300 
REMARK       I    between atoms: C3'_1302  and  O3'_1303 
REMARK       I    between atoms: O3'_1303  and  P_1304 
REMARK       I    between atoms: P_1304  and  O5'_1307 
REMARK       I    between atoms: O5'_1307  and  C5'_1308 
REMARK       I    between atoms: C5'_1308  and  C4'_1309 
REMARK       I    between atoms: C1'_1311  and  N1_1312 
REMARK       I    between atoms: C2'_1321  and  O2'_1322 
REMARK   97  A    between atoms: C3'_1324  and  O3'_1325 
REMARK   98  A    between atoms: O3'_1325  and  P_1326 
REMARK   99  A    between atoms: P_1326  and  O5'_1329 
REMARK  100  A    between atoms: O5'_1329  and  C5'_1330 
REMARK  101  A    between atoms: C5'_1330  and  C4'_1331 
REMARK       I    between atoms: C1'_1333  and  N1_1334 
REMARK       I    between atoms: C4_1339  and  N4_1340 
REMARK  102  A    between atoms: C2'_1344  and  O2'_1345 
REMARK  103  A    between atoms: C3'_1347  and  O3'_1348 
REMARK  104  A    between atoms: O3'_1348  and  P_1349 
REMARK       I    between atoms: P_1349  and  O5'_1352 
REMARK       I    between atoms: O5'_1352  and  C5'_1353 
REMARK       I    between atoms: C5'_1353  and  C4'_1354 
REMARK       I    between atoms: C1'_1356  and  N9_1357 
REMARK       I    between atoms: C6_1362  and  N6_1363 
REMARK       I    between atoms: C2'_1369  and  O2'_1370 
REMARK       I    between atoms: C3'_1372  and  O3'_1373 
ROOT
ATOM      1 'HO5   G A   1     -42.251  15.588  24.474  1.00  0.00     0.209 HD
ATOM      2  O5'   G A   1     -41.681  15.139  23.843  1.00  0.00    -0.398 OA
ATOM      3  C5'   G A   1     -40.845  16.140  23.254  1.00  0.00     0.198 C 
ATOM      4  C4'   G A   1     -40.609  17.285  24.213  1.00  0.00     0.180 C 
ATOM      5  O4'   G A   1     -41.548  17.177  25.322  1.00  0.00    -0.353 OA
ATOM      6  C1'   G A   1     -40.871  17.410  26.545  1.00  0.00     0.262 C 
ATOM      7  N9    G A   1     -40.771  16.145  27.267  1.00  0.00    -0.293 N 
ATOM      8  C4    G A   1     -40.357  15.979  28.566  1.00  0.00     0.187 A 
ATOM      9  N3    G A   1     -39.974  16.962  29.408  1.00  0.00    -0.044 NA
ATOM     10  C2    G A   1     -39.630  16.489  30.592  1.00  0.00     0.703 A 
ATOM     11  N2    G A   1     -39.226  17.328  31.549  1.00  0.00    -0.233 N 
ATOM     12  H21   G A   1     -39.187  18.318  31.356  1.00  0.00     0.174 HD
ATOM     13  H22   G A   1     -38.965  16.975  32.459  1.00  0.00     0.174 HD
ATOM     14  N1    G A   1     -39.659  15.160  30.927  1.00  0.00    -0.153 N 
ATOM     15  H1    G A   1     -39.376  14.906  31.861  1.00  0.00     0.187 HD
ATOM     16  C6    G A   1     -40.046  14.130  30.077  1.00  0.00     0.292 A 
ATOM     17  O6    G A   1     -40.029  12.961  30.481  1.00  0.00    -0.265 OA
ATOM     18  C5    G A   1     -40.421  14.621  28.800  1.00  0.00     0.173 A 
ATOM     19  N7    G A   1     -40.868  13.947  27.672  1.00  0.00    -0.234 NA
ATOM     20  C8    G A   1     -41.062  14.890  26.792  1.00  0.00     0.214 A 
ATOM     21  C2'   G A   1     -39.516  18.017  26.189  1.00  0.00     0.199 C 
ATOM     22  O2'   G A   1     -39.675  19.411  26.008  1.00  0.00    -0.388 OA
ATOM     23 'HO2   G A   1     -38.864  19.734  25.613  1.00  0.00     0.210 HD
ATOM     24  C3'   G A   1     -39.234  17.313  24.869  1.00  0.00     0.198 C 
ATOM     25  O3'   G A   1     -38.281  18.010  24.070  1.00  0.00    -0.279 OA
ATOM     26  P     A A   2     -36.752  17.510  24.032  1.00  0.00     0.408 P 
ATOM     27  OP1   A A   2     -36.044  18.338  23.023  1.00  0.00    -0.624 OA
ATOM     28  OP2   A A   2     -36.744  16.031  23.901  1.00  0.00    -0.624 OA
ATOM     29  O5'   A A   2     -36.186  17.886  25.473  1.00  0.00    -0.287 OA
ATOM     30  C5'   A A   2     -36.072  19.246  25.885  1.00  0.00     0.216 C 
ATOM     31  C4'   A A   2     -35.506  19.324  27.284  1.00  0.00     0.180 C 
ATOM     32  O4'   A A   2     -36.488  18.807  28.223  1.00  0.00    -0.353 OA
ATOM     33  C1'   A A   2     -35.832  18.077  29.246  1.00  0.00     0.262 C 
ATOM     34  N9    A A   2     -36.261  16.681  29.166  1.00  0.00    -0.294 N 
ATOM     35  C4    A A   2     -36.148  15.738  30.159  1.00  0.00     0.167 A 
ATOM     36  N3    A A   2     -35.629  15.907  31.388  1.00  0.00    -0.222 NA
ATOM     37  C2    A A   2     -35.684  14.773  32.080  1.00  0.00     0.237 A 
ATOM     38  N1    A A   2     -36.162  13.576  31.711  1.00  0.00    -0.222 NA
ATOM     39  C6    A A   2     -36.676  13.441  30.470  1.00  0.00     0.155 A 
ATOM     40  N6    A A   2     -37.152  12.251  30.103  1.00  0.00    -0.382 N 
ATOM     41  H61   A A   2     -37.541  12.129  29.180  1.00  0.00     0.157 HD
ATOM     42  H62   A A   2     -37.125  11.472  30.748  1.00  0.00     0.157 HD
ATOM     43  C5    A A   2     -36.678  14.573  29.636  1.00  0.00     0.149 A 
ATOM     44  N7    A A   2     -37.119  14.776  28.335  1.00  0.00    -0.236 NA
ATOM     45  C8    A A   2     -36.850  16.038  28.106  1.00  0.00     0.214 A 
ATOM     46  C2'   A A   2     -34.329  18.264  29.045  1.00  0.00     0.199 C 
ATOM     47  O2'   A A   2     -33.916  19.420  29.751  1.00  0.00    -0.388 OA
ATOM     48 'HO2   A A   2     -33.205  19.813  29.244  1.00  0.00     0.210 HD
ATOM     49  C3'   A A   2     -34.263  18.483  27.540  1.00  0.00     0.198 C 
ATOM     50  O3'   A A   2     -33.075  19.158  27.136  1.00  0.00    -0.279 OA
ATOM     51  P     C A   3     -31.807  18.308  26.625  1.00  0.00     0.408 P 
ATOM     52  OP1   C A   3     -30.817  19.278  26.089  1.00  0.00    -0.624 OA
ATOM     53  OP2   C A   3     -32.293  17.204  25.760  1.00  0.00    -0.624 OA
ATOM     54  O5'   C A   3     -31.207  17.671  27.957  1.00  0.00    -0.287 OA
ATOM     55  C5'   C A   3     -30.587  18.489  28.947  1.00  0.00     0.216 C 
ATOM     56  C4'   C A   3     -30.386  17.705  30.224  1.00  0.00     0.180 C 
ATOM     57  O4'   C A   3     -31.659  17.148  30.655  1.00  0.00    -0.353 OA
ATOM     58  C1'   C A   3     -31.438  15.899  31.292  1.00  0.00     0.264 C 
ATOM     59  N1    C A   3     -32.167  14.855  30.551  1.00  0.00    -0.278 N 
ATOM     60  C6    C A   3     -32.645  15.089  29.291  1.00  0.00     0.102 A 
ATOM     61  C2    C A   3     -32.359  13.610  31.157  1.00  0.00     0.352 A 
ATOM     62  O2    C A   3     -31.919  13.423  32.299  1.00  0.00    -0.244 OA
ATOM     63  N3    C A   3     -33.019  12.642  30.485  1.00  0.00    -0.177 NA
ATOM     64  C4    C A   3     -33.481  12.880  29.257  1.00  0.00     0.128 A 
ATOM     65  N4    C A   3     -34.123  11.893  28.633  1.00  0.00    -0.384 N 
ATOM     66  H41   C A   3     -34.488  12.030  27.702  1.00  0.00     0.157 HD
ATOM     67  H42   C A   3     -34.241  11.002  29.097  1.00  0.00     0.157 HD
ATOM     68  C5    C A   3     -33.305  14.140  28.614  1.00  0.00     0.067 A 
ATOM     69  C2'   C A   3     -29.927  15.668  31.329  1.00  0.00     0.199 C 
ATOM     70  O2'   C A   3     -29.417  16.208  32.534  1.00  0.00    -0.388 OA
ATOM     71 'HO2   C A   3     -28.765  16.868  32.291  1.00  0.00     0.210 HD
ATOM     72  C3'   C A   3     -29.482  16.485  30.124  1.00  0.00     0.198 C 
ATOM     73  O3'   C A   3     -28.099  16.827  30.179  1.00  0.00    -0.279 OA
ATOM     74  P     C A   4     -27.000  15.815  29.578  1.00  0.00     0.408 P 
ATOM     75  OP1   C A   4     -25.725  16.562  29.445  1.00  0.00    -0.624 OA
ATOM     76  OP2   C A   4     -27.583  15.146  28.388  1.00  0.00    -0.624 OA
ATOM     77  O5'   C A   4     -26.818  14.715  30.719  1.00  0.00    -0.287 OA
ATOM     78  C5'   C A   4     -26.633  15.092  32.084  1.00  0.00     0.216 C 
ATOM     79  C4'   C A   4     -26.440  13.865  32.946  1.00  0.00     0.180 C 
ATOM     80  O4'   C A   4     -27.746  13.296  33.248  1.00  0.00    -0.353 OA
ATOM     81  C1'   C A   4     -27.694  11.885  33.126  1.00  0.00     0.264 C 
ATOM     82  N1    C A   4     -28.486  11.488  31.949  1.00  0.00    -0.278 N 
ATOM     83  C6    C A   4     -28.635  12.338  30.889  1.00  0.00     0.102 A 
ATOM     84  C2    C A   4     -29.082  10.223  31.927  1.00  0.00     0.352 A 
ATOM     85  O2    C A   4     -28.934   9.472  32.901  1.00  0.00    -0.244 OA
ATOM     86  N3    C A   4     -29.804   9.851  30.846  1.00  0.00    -0.177 NA
ATOM     87  C4    C A   4     -29.943  10.689  29.817  1.00  0.00     0.128 A 
ATOM     88  N4    C A   4     -30.661  10.277  28.774  1.00  0.00    -0.384 N 
ATOM     89  H41   C A   4     -30.790  10.877  27.972  1.00  0.00     0.157 HD
ATOM     90  H42   C A   4     -31.076   9.355  28.783  1.00  0.00     0.157 HD
ATOM     91  C5    C A   4     -29.349  11.984  29.813  1.00  0.00     0.067 A 
ATOM     92  C2'   C A   4     -26.219  11.506  33.032  1.00  0.00     0.199 C 
ATOM     93  O2'   C A   4     -25.690  11.399  34.341  1.00  0.00    -0.388 OA
ATOM     94 'HO2   C A   4     -24.755  11.599  34.279  1.00  0.00     0.210 HD
ATOM     95  C3'   C A   4     -25.662  12.721  32.304  1.00  0.00     0.198 C 
ATOM     96  O3'   C A   4     -24.255  12.864  32.483  1.00  0.00    -0.279 OA
ATOM     97  P     T A   5     -23.262  12.609  31.243  1.00  0.00     0.408 P 
ATOM     98  OP1   T A   5     -21.889  12.967  31.684  1.00  0.00    -0.624 OA
ATOM     99  OP2   T A   5     -23.840  13.263  30.042  1.00  0.00    -0.624 OA
ATOM    100  O5'   T A   5     -23.318  11.030  31.018  1.00  0.00    -0.287 OA
ATOM    101  C5'   T A   5     -22.511  10.143  31.794  1.00  0.00     0.216 C 
ATOM    102  C4'   T A   5     -23.320   8.938  32.223  1.00  0.00     0.180 C 
ATOM    103  O4'   T A   5     -24.726   9.306  32.284  1.00  0.00    -0.353 OA
ATOM    104  C1'   T A   5     -25.524   8.246  31.789  1.00  0.00     0.264 C 
ATOM    105  N1    T A   5     -26.211   8.708  30.573  1.00  0.00    -0.280 N 
ATOM    106  C6    T A   5     -25.976   9.961  30.051  1.00  0.00     0.104 A 
ATOM    107  C2    T A   5     -27.105   7.842  29.966  1.00  0.00     0.331 A 
ATOM    108  O2    T A   5     -27.344   6.726  30.395  1.00  0.00    -0.246 OA
ATOM    109  N3    T A   5     -27.710   8.332  28.838  1.00  0.00    -0.275 N 
ATOM    110  H3    T A   5     -28.375   7.729  28.382  1.00  0.00     0.173 HD
ATOM    111  C4    T A   5     -27.522   9.568  28.266  1.00  0.00     0.250 A 
ATOM    112  O4    T A   5     -28.137   9.857  27.240  1.00  0.00    -0.268 OA
ATOM    113  C5    T A   5     -26.589  10.405  28.951  1.00  0.00     0.092 A 
ATOM    114  C2'   T A   5     -24.601   7.049  31.560  1.00  0.00     0.199 C 
ATOM    115  O2'   T A   5     -24.536   6.294  32.757  1.00  0.00    -0.388 OA
ATOM    116 'HO2   T A   5     -23.613   6.260  33.012  1.00  0.00     0.210 HD
ATOM    117  C3'   T A   5     -23.278   7.748  31.272  1.00  0.00     0.198 C 
ATOM    118  O3'   T A   5     -22.154   6.909  31.528  1.00  0.00    -0.279 OA
ATOM    119  P     C A   6     -21.041   6.687  30.386  1.00  0.00     0.408 P 
ATOM    120  OP1   C A   6     -19.888   6.002  31.024  1.00  0.00    -0.624 OA
ATOM    121  OP2   C A   6     -20.829   7.978  29.683  1.00  0.00    -0.624 OA
ATOM    122  O5'   C A   6     -21.733   5.672  29.367  1.00  0.00    -0.287 OA
ATOM    123  C5'   C A   6     -20.986   4.634  28.726  1.00  0.00     0.216 C 
ATOM    124  C4'   C A   6     -21.772   3.339  28.735  1.00  0.00     0.180 C 
ATOM    125  O4'   C A   6     -22.995   3.534  29.508  1.00  0.00    -0.353 OA
ATOM    126  C1'   C A   6     -24.102   3.044  28.774  1.00  0.00     0.264 C 
ATOM    127  N1    C A   6     -24.819   4.186  28.181  1.00  0.00    -0.278 N 
ATOM    128  C6    C A   6     -24.488   5.472  28.505  1.00  0.00     0.102 A 
ATOM    129  C2    C A   6     -25.836   3.931  27.264  1.00  0.00     0.352 A 
ATOM    130  O2    C A   6     -26.134   2.754  27.006  1.00  0.00    -0.244 OA
ATOM    131  N3    C A   6     -26.476   4.964  26.680  1.00  0.00    -0.177 NA
ATOM    132  C4    C A   6     -26.142   6.216  26.990  1.00  0.00     0.128 A 
ATOM    133  N4    C A   6     -26.798   7.200  26.375  1.00  0.00    -0.384 N 
ATOM    134  H41   C A   6     -26.590   8.169  26.566  1.00  0.00     0.157 HD
ATOM    135  H42   C A   6     -27.513   6.958  25.702  1.00  0.00     0.157 HD
ATOM    136  C5    C A   6     -25.120   6.510  27.940  1.00  0.00     0.067 A 
ATOM    137  C2'   C A   6     -23.525   2.099  27.728  1.00  0.00     0.199 C 
ATOM    138  O2'   C A   6     -23.244   0.852  28.336  1.00  0.00    -0.388 OA
ATOM    139 'HO2   C A   6     -22.294   0.742  28.320  1.00  0.00     0.210 HD
ATOM    140  C3'   C A   6     -22.252   2.849  27.371  1.00  0.00     0.198 C 
ATOM    141  O3'   C A   6     -21.304   2.013  26.714  1.00  0.00    -0.279 OA
ATOM    142  P     G A   7     -20.987   2.246  25.155  1.00  0.00     0.408 P 
ATOM    143  OP1   G A   7     -22.262   2.633  24.495  1.00  0.00    -0.624 OA
ATOM    144  OP2   G A   7     -19.817   3.155  25.077  1.00  0.00    -0.624 OA
ATOM    145  O5'   G A   7     -20.565   0.806  24.615  1.00  0.00    -0.287 OA
ATOM    146  C5'   G A   7     -20.837   0.408  23.266  1.00  0.00     0.216 C 
ATOM    147  C4'   G A   7     -19.548   0.307  22.480  1.00  0.00     0.180 C 
ATOM    148  O4'   G A   7     -19.768   0.872  21.158  1.00  0.00    -0.353 OA
ATOM    149  C1'   G A   7     -18.984   2.031  21.018  1.00  0.00     0.262 C 
ATOM    150  N9    G A   7     -19.798   3.169  21.433  1.00  0.00    -0.293 N 
ATOM    151  C4    G A   7     -21.047   3.468  20.959  1.00  0.00     0.187 A 
ATOM    152  N3    G A   7     -21.720   2.773  20.021  1.00  0.00    -0.044 NA
ATOM    153  C2    G A   7     -22.902   3.298  19.772  1.00  0.00     0.703 A 
ATOM    154  N2    G A   7     -23.689   2.724  18.865  1.00  0.00    -0.233 N 
ATOM    155  H21   G A   7     -23.364   1.899  18.385  1.00  0.00     0.174 HD
ATOM    156  H22   G A   7     -24.602   3.107  18.662  1.00  0.00     0.174 HD
ATOM    157  N1    G A   7     -23.393   4.418  20.394  1.00  0.00    -0.153 N 
ATOM    158  H1    G A   7     -24.314   4.736  20.130  1.00  0.00     0.187 HD
ATOM    159  C6    G A   7     -22.719   5.152  21.365  1.00  0.00     0.292 A 
ATOM    160  O6    G A   7     -23.257   6.146  21.867  1.00  0.00    -0.265 OA
ATOM    161  C5    G A   7     -21.439   4.599  21.642  1.00  0.00     0.173 A 
ATOM    162  N7    G A   7     -20.450   5.008  22.526  1.00  0.00    -0.234 NA
ATOM    163  C8    G A   7     -19.496   4.132  22.365  1.00  0.00     0.214 A 
ATOM    164  C2'   G A   7     -17.742   1.763  21.859  1.00  0.00     0.199 C 
ATOM    165  O2'   G A   7     -16.901   0.882  21.139  1.00  0.00    -0.388 OA
ATOM    166 'HO2   G A   7     -17.393   0.070  21.000  1.00  0.00     0.210 HD
ATOM    167  C3'   G A   7     -18.366   1.077  23.072  1.00  0.00     0.198 C 
ENDROOT
BRANCH 167 168
ATOM    168  O3'   G A   7     -17.473   0.193  23.738  1.00  0.00    -0.279 OA
BRANCH 168 169
ATOM    169  P     T A   8     -16.644   0.715  25.016  1.00  0.00     0.408 P 
ATOM    170  OP2   T A   8     -15.461  -0.164  25.198  1.00  0.00    -0.624 OA
ATOM    171  OP1   T A   8     -17.604   0.895  26.135  1.00  0.00    -0.624 OA
BRANCH 169 172
ATOM    172  O5'   T A   8     -16.125   2.156  24.578  1.00  0.00    -0.287 OA
BRANCH 172 173
ATOM    173  C5'   T A   8     -14.745   2.499  24.683  1.00  0.00     0.216 C 
BRANCH 173 174
ATOM    174  C4'   T A   8     -14.598   3.962  25.025  1.00  0.00     0.180 C 
ATOM    175  O4'   T A   8     -15.885   4.472  25.471  1.00  0.00    -0.353 OA
ATOM    176  C1'   T A   8     -15.697   5.353  26.565  1.00  0.00     0.264 C 
ATOM    177  C2'   T A   8     -14.193   5.584  26.709  1.00  0.00     0.199 C 
ATOM    178  N1    T A   8     -16.318   4.755  27.756  1.00  0.00    -0.280 N 
ATOM    179  C3'   T A   8     -13.645   4.269  26.171  1.00  0.00     0.198 C 
ATOM    180  C6    T A   8     -16.160   3.418  28.046  1.00  0.00     0.104 A 
ATOM    181  C2    T A   8     -17.064   5.578  28.580  1.00  0.00     0.331 A 
ATOM    182  C5    T A   8     -16.701   2.853  29.129  1.00  0.00     0.092 A 
ATOM    183  C4    T A   8     -17.480   3.638  30.032  1.00  0.00     0.250 A 
ATOM    184  N3    T A   8     -17.606   4.962  29.678  1.00  0.00    -0.275 N 
ATOM    185  O4    T A   8     -18.005   3.237  31.071  1.00  0.00    -0.268 OA
ATOM    186  H3    T A   8     -18.164   5.534  30.292  1.00  0.00     0.173 HD
ATOM    187  O2    T A   8     -17.232   6.764  28.356  1.00  0.00    -0.246 OA
BRANCH 177 188
ATOM    188  O2'   T A   8     -13.820   6.673  25.885  1.00  0.00    -0.388 OA
ATOM    189 'HO2   T A   8     -12.905   6.530  25.637  1.00  0.00     0.210 HD
ENDBRANCH 177 188
BRANCH 179 190
ATOM    190  O3'   T A   8     -12.299   4.376  25.711  1.00  0.00    -0.279 OA
BRANCH 190 191
ATOM    191  P     G A   9     -11.078   4.094  26.720  1.00  0.00     0.408 P 
ATOM    192  OP1   G A   9     -10.068   3.301  25.974  1.00  0.00    -0.624 OA
ATOM    193  OP2   G A   9     -11.606   3.579  28.010  1.00  0.00    -0.624 OA
BRANCH 191 194
ATOM    194  O5'   G A   9     -10.462   5.541  26.979  1.00  0.00    -0.287 OA
BRANCH 194 195
ATOM    195  C5'   G A   9     -10.977   6.381  28.013  1.00  0.00     0.216 C 
BRANCH 195 196
ATOM    196  C4'   G A   9      -9.861   6.824  28.928  1.00  0.00     0.180 C 
ATOM    197  O4'   G A   9      -9.199   5.656  29.477  1.00  0.00    -0.353 OA
ATOM    198  C1'   G A   9      -7.823   5.937  29.667  1.00  0.00     0.262 C 
ATOM    199  C2'   G A   9      -7.578   7.384  29.236  1.00  0.00     0.199 C 
ATOM    200  N9    G A   9      -7.045   4.969  28.902  1.00  0.00    -0.293 N 
ATOM    201  C3'   G A   9      -8.735   7.604  28.268  1.00  0.00     0.198 C 
ATOM    202  O3'   G A   9      -9.064   8.983  28.118  1.00  0.00    -0.279 OA
ATOM    203  P     G A  10      -8.637   9.765  26.779  1.00  0.00     0.408 P 
ATOM    204  OP2   G A  10      -9.277   9.092  25.620  1.00  0.00    -0.624 OA
ATOM    205  OP1   G A  10      -8.888  11.209  27.018  1.00  0.00    -0.624 OA
ATOM    206  O5'   G A  10      -7.062   9.542  26.681  1.00  0.00    -0.287 OA
ATOM    207  C8    G A   9      -7.198   4.642  27.577  1.00  0.00     0.214 A 
ATOM    208  C4    G A   9      -6.005   4.204  29.371  1.00  0.00     0.187 A 
ATOM    209  N7    G A   9      -6.348   3.742  27.166  1.00  0.00    -0.234 NA
ATOM    210  C5    G A   9      -5.584   3.457  28.293  1.00  0.00     0.173 A 
ATOM    211  C6    G A   9      -4.500   2.555  28.470  1.00  0.00     0.292 A 
ATOM    212  N1    G A   9      -4.022   2.581  29.775  1.00  0.00    -0.153 N 
ATOM    213  O6    G A   9      -3.976   1.806  27.641  1.00  0.00    -0.265 OA
ATOM    214  H1    G A   9      -3.250   1.968  29.986  1.00  0.00     0.187 HD
ATOM    215  C2    G A   9      -4.517   3.369  30.781  1.00  0.00     0.703 A 
ATOM    216  N3    G A   9      -5.521   4.213  30.633  1.00  0.00    -0.044 NA
ATOM    217  N2    G A   9      -3.926   3.250  31.971  1.00  0.00    -0.233 N 
ATOM    218  H22   G A   9      -3.161   2.605  32.110  1.00  0.00     0.174 HD
ATOM    219  H21   G A   9      -4.265   3.814  32.738  1.00  0.00     0.174 HD
BRANCH 199 220
ATOM    220  O2'   G A   9      -7.696   8.225  30.368  1.00  0.00    -0.388 OA
ATOM    221 'HO2   G A   9      -8.610   8.509  30.392  1.00  0.00     0.210 HD
ENDBRANCH 199 220
BRANCH 206 222
ATOM    222  C5'   G A  10      -6.172  10.159  27.610  1.00  0.00     0.216 C 
BRANCH 222 223
ATOM    223  C4'   G A  10      -5.301  11.180  26.910  1.00  0.00     0.180 C 
ATOM    224  O4'   G A  10      -5.690  12.516  27.321  1.00  0.00    -0.353 OA
ATOM    225  C1'   G A  10      -4.556  13.367  27.306  1.00  0.00     0.262 C 
ATOM    226  C2'   G A  10      -3.344  12.526  26.896  1.00  0.00     0.199 C 
ATOM    227  C3'   G A  10      -3.817  11.117  27.242  1.00  0.00     0.198 C 
BRANCH 225 228
ATOM    228  N9    G A  10      -4.426  13.987  28.621  1.00  0.00    -0.293 N 
ATOM    229  C4    G A  10      -3.911  15.232  28.891  1.00  0.00     0.187 A 
ATOM    230  N3    G A  10      -3.429  16.105  27.982  1.00  0.00    -0.044 NA
ATOM    231  C5    G A  10      -3.998  15.377  30.261  1.00  0.00     0.173 A 
ATOM    232  C2    G A  10      -3.002  17.220  28.545  1.00  0.00     0.703 A 
ATOM    233  N1    G A  10      -3.045  17.465  29.895  1.00  0.00    -0.153 N 
ATOM    234  N2    G A  10      -2.490  18.193  27.787  1.00  0.00    -0.233 N 
ATOM    235  C6    G A  10      -3.535  16.584  30.851  1.00  0.00     0.292 A 
ATOM    236  H1    G A  10      -2.692  18.354  30.214  1.00  0.00     0.187 HD
ATOM    237  O6    G A  10      -3.524  16.906  32.047  1.00  0.00    -0.265 OA
ATOM    238  H21   G A  10      -2.435  18.063  26.788  1.00  0.00     0.174 HD
ATOM    239  H22   G A  10      -2.163  19.052  28.209  1.00  0.00     0.174 HD
ATOM    240  N7    G A  10      -4.556  14.245  30.841  1.00  0.00    -0.234 NA
ATOM    241  C8    G A  10      -4.793  13.451  29.833  1.00  0.00     0.214 A 
ENDBRANCH 225 228
BRANCH 226 242
ATOM    242  O2'   G A  10      -3.145  12.668  25.502  1.00  0.00    -0.388 OA
ATOM    243 'HO2   G A  10      -3.660  13.426  25.229  1.00  0.00     0.210 HD
ENDBRANCH 226 242
BRANCH 227 244
ATOM    244  O3'   G A  10      -3.153  10.112  26.477  1.00  0.00    -0.279 OA
BRANCH 244 245
ATOM    245  P     C A  11      -3.847   9.526  25.148  1.00  0.00     0.408 P 
ATOM    246  OP2   C A  11      -4.553   8.267  25.496  1.00  0.00    -0.624 OA
ATOM    247  OP1   C A  11      -4.604  10.641  24.521  1.00  0.00    -0.624 OA
BRANCH 245 248
ATOM    248  O5'   C A  11      -2.619   9.165  24.202  1.00  0.00    -0.287 OA
BRANCH 248 249
ATOM    249  C5'   C A  11      -1.865  10.190  23.557  1.00  0.00     0.216 C 
BRANCH 249 250
ATOM    250  C4'   C A  11      -1.649   9.845  22.103  1.00  0.00     0.180 C 
ATOM    251  O4'   C A  11      -1.311   8.438  21.998  1.00  0.00    -0.353 OA
ATOM    252  C1'   C A  11      -1.824   7.916  20.784  1.00  0.00     0.264 C 
ATOM    253  C2'   C A  11      -2.547   9.050  20.052  1.00  0.00     0.199 C 
ATOM    254  C3'   C A  11      -2.863  10.001  21.201  1.00  0.00     0.198 C 
BRANCH 252 255
ATOM    255  N1    C A  11      -2.694   6.772  21.099  1.00  0.00    -0.278 N 
ATOM    256  C2    C A  11      -3.125   5.951  20.055  1.00  0.00     0.352 A 
ATOM    257  O2    C A  11      -2.757   6.205  18.901  1.00  0.00    -0.244 OA
ATOM    258  N3    C A  11      -3.929   4.901  20.326  1.00  0.00    -0.177 NA
ATOM    259  C4    C A  11      -4.301   4.655  21.582  1.00  0.00     0.128 A 
ATOM    260  N4    C A  11      -5.095   3.607  21.800  1.00  0.00    -0.384 N 
ATOM    261  C5    C A  11      -3.876   5.473  22.671  1.00  0.00     0.067 A 
ATOM    262  H41   C A  11      -5.401   3.384  22.735  1.00  0.00     0.157 HD
ATOM    263  H42   C A  11      -5.388   3.036  21.020  1.00  0.00     0.157 HD
ATOM    264  C6    C A  11      -3.080   6.511  22.384  1.00  0.00     0.102 A 
ENDBRANCH 252 255
BRANCH 253 265
ATOM    265  O2'   C A  11      -1.643   9.635  19.134  1.00  0.00    -0.388 OA
ATOM    266 'HO2   C A  11      -0.763   9.385  19.413  1.00  0.00     0.210 HD
ENDBRANCH 253 265
BRANCH 254 267
ATOM    267  O3'   C A  11      -3.024  11.349  20.763  1.00  0.00    -0.279 OA
BRANCH 267 268
ATOM    268  P     G A  12      -1.730  12.274  20.527  1.00  0.00     0.408 P 
ATOM    269  OP2   G A  12      -0.517  11.495  20.888  1.00  0.00    -0.624 OA
ATOM    270  OP1   G A  12      -1.851  12.852  19.165  1.00  0.00    -0.624 OA
BRANCH 268 271
ATOM    271  O5'   G A  12      -1.909  13.461  21.577  1.00  0.00    -0.287 OA
BRANCH 271 272
ATOM    272  C5'   G A  12      -2.701  14.609  21.270  1.00  0.00     0.216 C 
BRANCH 272 273
ATOM    273  C4'   G A  12      -3.933  14.639  22.144  1.00  0.00     0.180 C 
ATOM    274  O4'   G A  12      -3.549  15.048  23.484  1.00  0.00    -0.353 OA
ATOM    275  C1'   G A  12      -4.572  15.849  24.051  1.00  0.00     0.262 C 
ATOM    276  N9    G A  12      -4.015  17.163  24.356  1.00  0.00    -0.293 N 
ATOM    277  C2'   G A  12      -5.731  15.894  23.055  1.00  0.00     0.199 C 
ATOM    278  C4    G A  12      -4.702  18.244  24.855  1.00  0.00     0.187 A 
ATOM    279  C8    G A  12      -2.713  17.571  24.202  1.00  0.00     0.214 A 
ATOM    280  N3    G A  12      -6.017  18.278  25.155  1.00  0.00    -0.044 NA
ATOM    281  C5    G A  12      -3.766  19.251  24.972  1.00  0.00     0.173 A 
ATOM    282  C2    G A  12      -6.387  19.457  25.617  1.00  0.00     0.703 A 
ATOM    283  N1    G A  12      -5.539  20.523  25.771  1.00  0.00    -0.153 N 
ATOM    284  N2    G A  12      -7.659  19.662  25.965  1.00  0.00    -0.233 N 
ATOM    285  C6    G A  12      -4.182  20.515  25.466  1.00  0.00     0.292 A 
ATOM    286  H1    G A  12      -5.925  21.382  26.133  1.00  0.00     0.187 HD
ATOM    287  O6    G A  12      -3.508  21.537  25.639  1.00  0.00    -0.265 OA
ATOM    288  H22   G A  12      -7.953  20.555  26.328  1.00  0.00     0.174 HD
ATOM    289  H21   G A  12      -8.325  18.908  25.871  1.00  0.00     0.174 HD
ATOM    290  N7    G A  12      -2.516  18.811  24.556  1.00  0.00    -0.234 NA
ATOM    291  C3'   G A  12      -5.002  15.644  21.739  1.00  0.00     0.198 C 
BRANCH 277 292
ATOM    292  O2'   G A  12      -6.627  14.841  23.354  1.00  0.00    -0.388 OA
ATOM    293 'HO2   G A  12      -7.498  15.132  23.084  1.00  0.00     0.210 HD
ENDBRANCH 277 292
BRANCH 291 294
ATOM    294  O3'   G A  12      -5.865  15.120  20.731  1.00  0.00    -0.279 OA
BRANCH 294 295
ATOM    295  P     T A  13      -6.344  16.064  19.520  1.00  0.00     0.408 P 
ATOM    296  OP2   T A  13      -5.138  16.606  18.844  1.00  0.00    -0.624 OA
ATOM    297  OP1   T A  13      -7.347  15.302  18.731  1.00  0.00    -0.624 OA
BRANCH 295 298
ATOM    298  O5'   T A  13      -7.090  17.272  20.242  1.00  0.00    -0.287 OA
BRANCH 298 299
ATOM    299  C5'   T A  13      -8.326  17.776  19.740  1.00  0.00     0.216 C 
BRANCH 299 300
ATOM    300  C4'   T A  13      -8.124  19.144  19.129  1.00  0.00     0.180 C 
ATOM    301  O4'   T A  13      -9.367  19.895  19.234  1.00  0.00    -0.353 OA
ATOM    302  C1'   T A  13      -9.084  21.236  19.598  1.00  0.00     0.264 C 
ATOM    303  N1    T A  13      -9.594  21.469  20.958  1.00  0.00    -0.280 N 
ATOM    304  C2'   T A  13      -7.574  21.424  19.472  1.00  0.00     0.199 C 
ATOM    305  C6    T A  13      -9.950  20.422  21.778  1.00  0.00     0.104 A 
ATOM    306  C2    T A  13      -9.700  22.778  21.387  1.00  0.00     0.331 A 
ATOM    307  C5    T A  13     -10.409  20.611  23.019  1.00  0.00     0.092 A 
ATOM    308  C4    T A  13     -10.544  21.936  23.537  1.00  0.00     0.250 A 
ATOM    309  O4    T A  13     -10.954  22.239  24.657  1.00  0.00    -0.268 OA
ATOM    310  N3    T A  13     -10.171  22.933  22.665  1.00  0.00    -0.275 N 
ATOM    311  H3    T A  13     -10.250  23.881  22.998  1.00  0.00     0.173 HD
ATOM    312  O2    T A  13      -9.400  23.731  20.692  1.00  0.00    -0.246 OA
ATOM    313  C3'   T A  13      -7.086  20.023  19.814  1.00  0.00     0.198 C 
ATOM    314  O2'   T A  13      -7.266  21.761  18.133  1.00  0.00    -0.388 OA
ATOM    315  O3'   T A  13      -5.771  19.771  19.328  1.00  0.00    -0.279 OA
ATOM    316  P     C A  14      -4.505  19.994  20.295  1.00  0.00     0.408 P 
ATOM    317  OP2   C A  14      -4.840  19.461  21.640  1.00  0.00    -0.624 OA
ATOM    318  OP1   C A  14      -3.307  19.482  19.581  1.00  0.00    -0.624 OA
ATOM    319  O5'   C A  14      -4.378  21.579  20.408  1.00  0.00    -0.287 OA
ATOM    320  C5'   C A  14      -3.956  22.363  19.292  1.00  0.00     0.216 C 
ATOM    321  C4'   C A  14      -4.048  23.836  19.623  1.00  0.00     0.180 C 
ATOM    322  O4'   C A  14      -5.406  24.148  20.036  1.00  0.00    -0.353 OA
ATOM    323  C3'   C A  14      -3.191  24.307  20.788  1.00  0.00     0.198 C 
ATOM    324  C1'   C A  14      -5.382  25.142  21.046  1.00  0.00     0.264 C 
ATOM    325  N1    C A  14      -6.008  24.588  22.260  1.00  0.00    -0.278 N 
ATOM    326  C2'   C A  14      -3.925  25.560  21.245  1.00  0.00     0.199 C 
ATOM    327  C6    C A  14      -6.194  23.241  22.400  1.00  0.00     0.102 A 
ATOM    328  C2    C A  14      -6.413  25.464  23.270  1.00  0.00     0.352 A 
ATOM    329  C5    C A  14      -6.769  22.733  23.498  1.00  0.00     0.067 A 
ATOM    330  C4    C A  14      -7.174  23.652  24.510  1.00  0.00     0.128 A 
ATOM    331  N3    C A  14      -6.994  24.967  24.385  1.00  0.00    -0.177 NA
ATOM    332  N4    C A  14      -7.753  23.208  25.624  1.00  0.00    -0.384 N 
ATOM    333  H42   C A  14      -8.033  23.867  26.338  1.00  0.00     0.157 HD
ATOM    334  H41   C A  14      -7.910  22.219  25.761  1.00  0.00     0.157 HD
ATOM    335  O2    C A  14      -6.230  26.682  23.122  1.00  0.00    -0.244 OA
ATOM    336  O2'   C A  14      -3.650  26.656  20.392  1.00  0.00    -0.388 OA
ATOM    337 'HO2   C A  14      -2.872  26.426  19.883  1.00  0.00     0.210 HD
ATOM    338  O3'   C A  14      -1.851  24.577  20.380  1.00  0.00    -0.279 OA
ATOM    339  P     T A  15      -0.678  24.644  21.480  1.00  0.00     0.408 P 
ATOM    340  OP2   T A  15      -0.841  23.498  22.411  1.00  0.00    -0.624 OA
ATOM    341  O5'   T A  15      -0.979  25.986  22.285  1.00  0.00    -0.287 OA
ATOM    342  OP1   T A  15       0.603  24.819  20.748  1.00  0.00    -0.624 OA
ATOM    343  C5'   T A  15      -0.880  27.261  21.652  1.00  0.00     0.216 C 
ATOM    344  C4'   T A  15      -0.966  28.363  22.681  1.00  0.00     0.180 C 
ATOM    345  C3'   T A  15      -0.151  28.144  23.949  1.00  0.00     0.198 C 
ATOM    346  O4'   T A  15      -2.339  28.470  23.150  1.00  0.00    -0.353 OA
ATOM    347  O3'   T A  15       1.204  28.552  23.783  1.00  0.00    -0.279 OA
ATOM    348  C2'   T A  15      -0.901  28.995  24.964  1.00  0.00     0.199 C 
ATOM    349  P     G A  16       2.363  27.837  24.639  1.00  0.00     0.408 P 
ATOM    350  O5'   G A  16       2.142  28.383  26.120  1.00  0.00    -0.287 OA
ATOM    351  OP2   G A  16       2.114  26.373  24.642  1.00  0.00    -0.624 OA
ATOM    352  OP1   G A  16       3.663  28.358  24.143  1.00  0.00    -0.624 OA
ATOM    353  C5'   G A  16       2.610  29.675  26.503  1.00  0.00     0.216 C 
ATOM    354  C4'   G A  16       2.039  30.063  27.847  1.00  0.00     0.180 C 
ATOM    355  C3'   G A  16       2.573  29.287  29.042  1.00  0.00     0.198 C 
ATOM    356  O4'   G A  16       0.614  29.785  27.863  1.00  0.00    -0.353 OA
ATOM    357  C2'   G A  16       1.457  29.460  30.065  1.00  0.00     0.199 C 
ATOM    358  O3'   G A  16       3.817  29.812  29.500  1.00  0.00    -0.279 OA
ATOM    359  O2'   G A  16       1.518  30.735  30.675  1.00  0.00    -0.388 OA
ATOM    360  C1'   G A  16       0.218  29.405  29.170  1.00  0.00     0.262 C 
ATOM    361 'HO2   G A  16       2.423  31.037  30.591  1.00  0.00     0.210 HD
ATOM    362  N9    G A  16      -0.393  28.081  29.101  1.00  0.00    -0.293 N 
ATOM    363  C4    G A  16      -1.131  27.471  30.088  1.00  0.00     0.187 A 
ATOM    364  C8    G A  16      -0.351  27.199  28.050  1.00  0.00     0.214 A 
ATOM    365  N3    G A  16      -1.416  27.990  31.300  1.00  0.00    -0.044 NA
ATOM    366  C5    G A  16      -1.501  26.250  29.566  1.00  0.00     0.173 A 
ATOM    367  C2    G A  16      -2.145  27.166  32.029  1.00  0.00     0.703 A 
ATOM    368  N1    G A  16      -2.566  25.931  31.605  1.00  0.00    -0.153 N 
ATOM    369  N2    G A  16      -2.514  27.522  33.262  1.00  0.00    -0.233 N 
ATOM    370  H1    G A  16      -3.122  25.381  32.242  1.00  0.00     0.187 HD
ATOM    371  C6    G A  16      -2.285  25.376  30.362  1.00  0.00     0.292 A 
ATOM    372  O6    G A  16      -2.715  24.252  30.080  1.00  0.00    -0.265 OA
ATOM    373  H22   G A  16      -3.070  26.899  33.832  1.00  0.00     0.174 HD
ATOM    374  H21   G A  16      -2.230  28.421  33.622  1.00  0.00     0.174 HD
ATOM    375  N7    G A  16      -1.003  26.093  28.279  1.00  0.00    -0.234 NA
ATOM    376  P     A A  17       4.831  28.868  30.320  1.00  0.00     0.408 P 
ATOM    377  O5'   A A  17       4.030  28.500  31.648  1.00  0.00    -0.287 OA
ATOM    378  OP1   A A  17       6.000  29.701  30.699  1.00  0.00    -0.624 OA
ATOM    379  OP2   A A  17       5.041  27.620  29.544  1.00  0.00    -0.624 OA
ATOM    380  C5'   A A  17       3.721  29.498  32.621  1.00  0.00     0.216 C 
ATOM    381  C4'   A A  17       3.184  28.854  33.878  1.00  0.00     0.180 C 
ATOM    382  O4'   A A  17       1.821  28.416  33.643  1.00  0.00    -0.353 OA
ATOM    383  C3'   A A  17       3.901  27.591  34.331  1.00  0.00     0.198 C 
ATOM    384  C1'   A A  17       1.560  27.248  34.403  1.00  0.00     0.262 C 
ATOM    385  C2'   A A  17       2.836  26.889  35.168  1.00  0.00     0.199 C 
ATOM    386  N9    A A  17       1.106  26.200  33.490  1.00  0.00    -0.294 N 
ATOM    387  O2'   A A  17       2.757  27.450  36.464  1.00  0.00    -0.388 OA
ATOM    388 'HO2   A A  17       3.573  27.930  36.606  1.00  0.00     0.210 HD
ATOM    389  C4    A A  17       0.332  25.115  33.824  1.00  0.00     0.167 A 
ATOM    390  C8    A A  17       1.349  26.085  32.144  1.00  0.00     0.214 A 
ATOM    391  N3    A A  17      -0.151  24.802  35.039  1.00  0.00    -0.222 NA
ATOM    392  C5    A A  17       0.146  24.408  32.651  1.00  0.00     0.149 A 
ATOM    393  C2    A A  17      -0.865  23.680  34.985  1.00  0.00     0.237 A 
ATOM    394  N1    A A  17      -1.130  22.894  33.933  1.00  0.00    -0.222 NA
ATOM    395  C6    A A  17      -0.628  23.236  32.727  1.00  0.00     0.155 A 
ATOM    396  N6    A A  17      -0.892  22.451  31.682  1.00  0.00    -0.382 N 
ATOM    397  H62   A A  17      -1.455  21.621  31.803  1.00  0.00     0.157 HD
ATOM    398  H61   A A  17      -0.527  22.688  30.771  1.00  0.00     0.157 HD
ATOM    399  N7    A A  17       0.796  25.032  31.594  1.00  0.00    -0.236 NA
ATOM    400  O3'   A A  17       5.071  27.897  35.086  1.00  0.00    -0.279 OA
ATOM    401  P     C A  18       6.373  26.960  34.959  1.00  0.00     0.408 P 
ATOM    402  O5'   C A  18       5.926  25.582  35.623  1.00  0.00    -0.287 OA
ATOM    403  OP2   C A  18       6.637  26.712  33.518  1.00  0.00    -0.624 OA
ATOM    404  OP1   C A  18       7.434  27.559  35.807  1.00  0.00    -0.624 OA
ATOM    405  C5'   C A  18       5.454  25.531  36.969  1.00  0.00     0.216 C 
ATOM    406  C4'   C A  18       4.777  24.206  37.233  1.00  0.00     0.180 C 
ATOM    407  C3'   C A  18       5.590  22.975  36.852  1.00  0.00     0.198 C 
ATOM    408  O4'   C A  18       3.574  24.128  36.420  1.00  0.00    -0.353 OA
ATOM    409  C2'   C A  18       4.514  21.947  36.526  1.00  0.00     0.199 C 
ATOM    410  O3'   C A  18       6.432  22.559  37.925  1.00  0.00    -0.279 OA
ATOM    411  C1'   C A  18       3.442  22.826  35.882  1.00  0.00     0.264 C 
ATOM    412  O2'   C A  18       3.985  21.373  37.707  1.00  0.00    -0.388 OA
ATOM    413  N1    C A  18       3.549  22.920  34.417  1.00  0.00    -0.278 N 
ATOM    414  C2    C A  18       2.605  22.259  33.626  1.00  0.00     0.352 A 
ATOM    415  C6    C A  18       4.554  23.639  33.832  1.00  0.00     0.102 A 
ATOM    416  O2    C A  18       1.700  21.619  34.180  1.00  0.00    -0.244 OA
ATOM    417  N3    C A  18       2.700  22.334  32.280  1.00  0.00    -0.177 NA
ATOM    418  C4    C A  18       3.687  23.036  31.720  1.00  0.00     0.128 A 
ATOM    419  C5    C A  18       4.660  23.723  32.500  1.00  0.00     0.067 A 
ATOM    420  N4    C A  18       3.742  23.078  30.390  1.00  0.00    -0.384 N 
ATOM    421  H41   C A  18       4.475  23.597  29.928  1.00  0.00     0.157 HD
ATOM    422  H42   C A  18       3.047  22.588  29.846  1.00  0.00     0.157 HD
ATOM    423 'HO2   C A  18       4.608  21.566  38.407  1.00  0.00     0.210 HD
ATOM    424  P     T A  19       7.946  22.106  37.626  1.00  0.00     0.408 P 
ATOM    425  O5'   T A  19       7.821  20.561  37.255  1.00  0.00    -0.287 OA
ATOM    426  OP1   T A  19       8.698  22.213  38.903  1.00  0.00    -0.624 OA
ATOM    427  OP2   T A  19       8.435  22.835  36.426  1.00  0.00    -0.624 OA
ATOM    428  C1'   T A  15      -2.348  28.741  24.542  1.00  0.00     0.264 C 
ATOM    429  O2'   T A  15      -0.613  30.371  24.798  1.00  0.00    -0.388 OA
ATOM    430  N1    T A  15      -2.968  27.601  25.233  1.00  0.00    -0.280 N 
ATOM    431  C2    T A  15      -3.618  27.847  26.429  1.00  0.00     0.331 A 
ATOM    432  C6    T A  15      -2.901  26.327  24.713  1.00  0.00     0.104 A 
ATOM    433  N3    T A  15      -4.167  26.744  27.027  1.00  0.00    -0.275 N 
ATOM    434  O2    T A  15      -3.702  28.958  26.921  1.00  0.00    -0.246 OA
ATOM    435  H3    T A  15      -4.639  26.900  27.907  1.00  0.00     0.173 HD
ATOM    436  C4    T A  15      -4.141  25.449  26.565  1.00  0.00     0.250 A 
ATOM    437  O4    T A  15      -4.694  24.564  27.218  1.00  0.00    -0.268 OA
ATOM    438  C5    T A  15      -3.454  25.274  25.325  1.00  0.00     0.092 A 
ATOM    439 'HO2   T A  15       0.150  30.561  25.345  1.00  0.00     0.210 HD
ATOM    440 'HO2   T A  13      -6.477  21.272  17.901  1.00  0.00     0.210 HD
BRANCH 425 441
ATOM    441  C5'   T A  19       8.895  19.869  36.619  1.00  0.00     0.216 C 
BRANCH 441 442
ATOM    442  C4'   T A  19       8.357  18.771  35.732  1.00  0.00     0.180 C 
ATOM    443  O4'   T A  19       9.453  18.220  34.952  1.00  0.00    -0.353 OA
ATOM    444  C1'   T A  19       9.371  16.807  34.933  1.00  0.00     0.264 C 
ATOM    445  C2'   T A  19       8.026  16.411  35.541  1.00  0.00     0.199 C 
ATOM    446  C3'   T A  19       7.755  17.585  36.476  1.00  0.00     0.198 C 
BRANCH 444 447
ATOM    447  N1    T A  19      10.535  16.269  35.652  1.00  0.00    -0.280 N 
ATOM    448  C2    T A  19      10.840  14.932  35.473  1.00  0.00     0.331 A 
ATOM    449  O2    T A  19      10.183  14.192  34.763  1.00  0.00    -0.246 OA
ATOM    450  N3    T A  19      11.941  14.492  36.160  1.00  0.00    -0.275 N 
ATOM    451  H3    T A  19      12.189  13.523  36.036  1.00  0.00     0.173 HD
ATOM    452  C4    T A  19      12.749  15.231  36.993  1.00  0.00     0.250 A 
ATOM    453  O4    T A  19      13.716  14.693  37.533  1.00  0.00    -0.268 OA
ATOM    454  C5    T A  19      12.366  16.601  37.131  1.00  0.00     0.092 A 
ATOM    455  C6    T A  19      11.300  17.066  36.474  1.00  0.00     0.104 A 
ENDBRANCH 444 447
BRANCH 445 456
ATOM    456  O2'   T A  19       7.063  16.346  34.506  1.00  0.00    -0.388 OA
ATOM    457 'HO2   T A  19       6.811  17.250  34.312  1.00  0.00     0.210 HD
ENDBRANCH 445 456
BRANCH 446 458
ATOM    458  O3'   T A  19       6.363  17.780  36.708  1.00  0.00    -0.279 OA
BRANCH 458 459
ATOM    459  P     C A  20       5.771  17.619  38.195  1.00  0.00     0.408 P 
ATOM    460  OP2   C A  20       6.804  16.979  39.048  1.00  0.00    -0.624 OA
ATOM    461  OP1   C A  20       5.206  18.935  38.588  1.00  0.00    -0.624 OA
BRANCH 459 462
ATOM    462  O5'   C A  20       4.564  16.597  38.012  1.00  0.00    -0.287 OA
BRANCH 462 463
ATOM    463  C5'   C A  20       4.394  15.488  38.893  1.00  0.00     0.216 C 
ATOM    464  C4'   C A  20       3.105  14.768  38.577  1.00  0.00     0.180 C 
ATOM    465  C3'   C A  20       2.760  14.680  37.095  1.00  0.00     0.198 C 
ATOM    466  O4'   C A  20       2.002  15.504  39.177  1.00  0.00    -0.353 OA
ATOM    467  C2'   C A  20       1.237  14.637  37.106  1.00  0.00     0.199 C 
ATOM    468  C1'   C A  20       0.925  15.586  38.262  1.00  0.00     0.264 C 
ATOM    469  N1    C A  20       0.768  16.992  37.853  1.00  0.00    -0.278 N 
ATOM    470  C2    C A  20      -0.520  17.503  37.670  1.00  0.00     0.352 A 
ATOM    471  C6    C A  20       1.861  17.790  37.654  1.00  0.00     0.102 A 
ATOM    472  O2    C A  20      -1.493  16.760  37.858  1.00  0.00    -0.244 OA
ATOM    473  N3    C A  20      -0.672  18.793  37.294  1.00  0.00    -0.177 NA
ATOM    474  C4    C A  20       0.401  19.562  37.102  1.00  0.00     0.128 A 
ATOM    475  C5    C A  20       1.725  19.068  37.282  1.00  0.00     0.067 A 
ATOM    476  N4    C A  20       0.200  20.827  36.733  1.00  0.00    -0.384 N 
ATOM    477  H42   C A  20      -0.745  21.163  36.611  1.00  0.00     0.157 HD
ATOM    478  H41   C A  20       0.984  21.443  36.578  1.00  0.00     0.157 HD
BRANCH 465 479
ATOM    479  O3'   C A  20       3.335  13.522  36.494  1.00  0.00    -0.279 OA
BRANCH 479 480
ATOM    480  P     C A  21       4.456  13.687  35.353  1.00  0.00     0.408 P 
ATOM    481  OP2   C A  21       4.177  12.703  34.275  1.00  0.00    -0.624 OA
ATOM    482  OP1   C A  21       4.541  15.131  35.022  1.00  0.00    -0.624 OA
BRANCH 480 483
ATOM    483  O5'   C A  21       5.808  13.266  36.081  1.00  0.00    -0.287 OA
BRANCH 483 484
ATOM    484  C5'   C A  21       6.884  12.679  35.353  1.00  0.00     0.216 C 
BRANCH 484 485
ATOM    485  C4'   C A  21       7.612  11.678  36.216  1.00  0.00     0.180 C 
ATOM    486  C3'   C A  21       7.945  10.356  35.536  1.00  0.00     0.198 C 
ATOM    487  O3'   C A  21       9.185  10.427  34.838  1.00  0.00    -0.279 OA
ATOM    488  C2'   C A  21       7.990   9.384  36.708  1.00  0.00     0.199 C 
ATOM    489  P     A A  22       9.316   9.776  33.373  1.00  0.00     0.408 P 
ATOM    490  OP2   A A  22       8.206  10.293  32.533  1.00  0.00    -0.624 OA
ATOM    491  O5'   A A  22       9.076   8.221  33.619  1.00  0.00    -0.287 OA
ATOM    492  OP1   A A  22      10.720   9.965  32.929  1.00  0.00    -0.624 OA
ATOM    493  C5'   A A  22       9.980   7.455  34.413  1.00  0.00     0.216 C 
ATOM    494  C4'   A A  22       9.480   6.037  34.558  1.00  0.00     0.180 C 
ATOM    495  C3'   A A  22       8.933   5.401  33.287  1.00  0.00     0.198 C 
ATOM    496  O4'   A A  22       8.355   6.024  35.483  1.00  0.00    -0.353 OA
ATOM    497  O3'   A A  22       9.967   4.817  32.501  1.00  0.00    -0.279 OA
ATOM    498  C2'   A A  22       7.962   4.367  33.837  1.00  0.00     0.199 C 
ATOM    499  P     G A  23       9.842   4.806  30.897  1.00  0.00     0.408 P 
ATOM    500  OP2   G A  23       9.572   6.192  30.437  1.00  0.00    -0.624 OA
ATOM    501  OP1   G A  23      11.022   4.076  30.370  1.00  0.00    -0.624 OA
ATOM    502  C1'   A A  22       7.353   5.142  35.003  1.00  0.00     0.262 C 
ATOM    503  O2'   A A  22       8.649   3.239  34.345  1.00  0.00    -0.388 OA
ATOM    504  N9    A A  22       6.181   5.934  34.633  1.00  0.00    -0.294 N 
ATOM    505  C4    A A  22       4.910   5.460  34.414  1.00  0.00     0.167 A 
ATOM    506  C8    A A  22       6.113   7.290  34.430  1.00  0.00     0.214 A 
ATOM    507  N3    A A  22       4.489   4.185  34.495  1.00  0.00    -0.222 NA
ATOM    508  C5    A A  22       4.145   6.565  34.089  1.00  0.00     0.149 A 
ATOM    509  C2    A A  22       3.191   4.101  34.214  1.00  0.00     0.237 A 
ATOM    510  N1    A A  22       2.330   5.073  33.887  1.00  0.00    -0.222 NA
ATOM    511  C6    A A  22       2.785   6.341  33.814  1.00  0.00     0.155 A 
ATOM    512  N6    A A  22       1.927   7.308  33.489  1.00  0.00    -0.382 N 
ATOM    513  H61   A A  22       2.248   8.265  33.430  1.00  0.00     0.157 HD
ATOM    514  H62   A A  22       0.961   7.082  33.303  1.00  0.00     0.157 HD
ATOM    515  N7    A A  22       4.919   7.718  34.104  1.00  0.00    -0.236 NA
ATOM    516 'HO2   A A  22       9.500   3.217  33.905  1.00  0.00     0.210 HD
ATOM    517  C1'   C A  21       6.854   9.920  37.578  1.00  0.00     0.264 C 
ATOM    518  O2'   C A  21       9.206   9.501  37.423  1.00  0.00    -0.388 OA
ATOM    519  N1    C A  21       5.545   9.309  37.291  1.00  0.00    -0.278 N 
ATOM    520  O4'   C A  21       6.761  11.313  37.337  1.00  0.00    -0.353 OA
ATOM    521  C6    C A  21       4.594   9.988  36.580  1.00  0.00     0.102 A 
ATOM    522  C2    C A  21       5.286   8.016  37.756  1.00  0.00     0.352 A 
ATOM    523  C5    C A  21       3.404   9.437  36.313  1.00  0.00     0.067 A 
ATOM    524  C4    C A  21       3.170   8.118  36.800  1.00  0.00     0.128 A 
ATOM    525  N4    C A  21       2.005   7.514  36.567  1.00  0.00    -0.384 N 
ATOM    526  N3    C A  21       4.089   7.447  37.495  1.00  0.00    -0.177 NA
ATOM    527  H41   C A  21       1.283   7.987  36.043  1.00  0.00     0.157 HD
ATOM    528  H42   C A  21       1.855   6.578  36.915  1.00  0.00     0.157 HD
ATOM    529  O2    C A  21       6.165   7.423  38.399  1.00  0.00    -0.244 OA
ATOM    530 'HO2   C A  21       9.812   9.980  36.856  1.00  0.00     0.210 HD
BRANCH 499 531
ATOM    531  O5'   G A  23       8.545   3.922  30.618  1.00  0.00    -0.287 OA
BRANCH 531 532
ATOM    532  C5'   G A  23       8.152   3.596  29.286  1.00  0.00     0.216 C 
BRANCH 532 533
ATOM    533  C4'   G A  23       8.184   2.100  29.082  1.00  0.00     0.180 C 
ATOM    534  C3'   G A  23       6.875   1.470  28.627  1.00  0.00     0.198 C 
ATOM    535  C2'   G A  23       7.027   0.029  29.097  1.00  0.00     0.199 C 
ATOM    536  C1'   G A  23       7.757   0.225  30.427  1.00  0.00     0.262 C 
ATOM    537  N9    G A  23       6.864   0.277  31.579  1.00  0.00    -0.293 N 
ATOM    538  O4'   G A  23       8.466   1.450  30.351  1.00  0.00    -0.353 OA
ATOM    539  C4    G A  23       6.075  -0.746  32.046  1.00  0.00     0.187 A 
ATOM    540  C8    G A  23       6.640   1.347  32.411  1.00  0.00     0.214 A 
ATOM    541  N3    G A  23       5.987  -1.984  31.516  1.00  0.00    -0.044 NA
ATOM    542  C5    G A  23       5.414  -0.230  33.140  1.00  0.00     0.173 A 
ATOM    543  C2    G A  23       5.140  -2.746  32.184  1.00  0.00     0.703 A 
ATOM    544  N2    G A  23       4.933  -4.006  31.789  1.00  0.00    -0.233 N 
ATOM    545  N1    G A  23       4.435  -2.332  33.283  1.00  0.00    -0.153 N 
ATOM    546  H21   G A  23       5.433  -4.354  30.983  1.00  0.00     0.174 HD
ATOM    547  H22   G A  23       4.283  -4.599  32.283  1.00  0.00     0.174 HD
ATOM    548  H1    G A  23       3.811  -2.992  33.720  1.00  0.00     0.187 HD
ATOM    549  C6    G A  23       4.508  -1.064  33.847  1.00  0.00     0.292 A 
ATOM    550  O6    G A  23       3.827  -0.795  34.843  1.00  0.00    -0.265 OA
ATOM    551  N7    G A  23       5.781   1.092  33.359  1.00  0.00    -0.234 NA
BRANCH 534 552
ATOM    552  O3'   G A  23       6.706   1.568  27.216  1.00  0.00    -0.279 OA
BRANCH 552 553
ATOM    553  P     A A  24       5.318   1.107  26.544  1.00  0.00     0.408 P 
ATOM    554  OP1   A A  24       4.224   1.532  27.454  1.00  0.00    -0.624 OA
ATOM    555  OP2   A A  24       5.434  -0.321  26.155  1.00  0.00    -0.624 OA
BRANCH 553 556
ATOM    556  O5'   A A  24       5.223   1.980  25.214  1.00  0.00    -0.287 OA
BRANCH 556 557
ATOM    557  C5'   A A  24       4.551   1.487  24.057  1.00  0.00     0.216 C 
BRANCH 557 558
ATOM    558  C4'   A A  24       3.764   2.595  23.398  1.00  0.00     0.180 C 
ATOM    559  C3'   A A  24       3.432   3.782  24.293  1.00  0.00     0.198 C 
ATOM    560  O3'   A A  24       4.492   4.734  24.315  1.00  0.00    -0.279 OA
ATOM    561  C2'   A A  24       2.167   4.335  23.648  1.00  0.00     0.199 C 
ATOM    562  P     T A  25       4.720   5.643  25.623  1.00  0.00     0.408 P 
ATOM    563  OP1   T A  25       5.812   6.600  25.312  1.00  0.00    -0.624 OA
ATOM    564  O5'   T A  25       3.362   6.463  25.766  1.00  0.00    -0.287 OA
ATOM    565  OP2   T A  25       4.845   4.747  26.801  1.00  0.00    -0.624 OA
ATOM    566  C5'   T A  25       2.989   7.444  24.799  1.00  0.00     0.216 C 
ATOM    567  C4'   T A  25       1.710   8.131  25.218  1.00  0.00     0.180 C 
ATOM    568  C3'   T A  25       1.641   8.547  26.681  1.00  0.00     0.198 C 
ATOM    569  O4'   T A  25       0.603   7.205  25.049  1.00  0.00    -0.353 OA
ATOM    570  O3'   T A  25       2.239   9.823  26.889  1.00  0.00    -0.279 OA
ATOM    571  C2'   T A  25       0.141   8.556  26.953  1.00  0.00     0.199 C 
ATOM    572  P     C A  26       2.666  10.273  28.373  1.00  0.00     0.408 P 
ATOM    573  OP1   C A  26       3.437  11.534  28.250  1.00  0.00    -0.624 OA
ATOM    574  O5'   C A  26       1.280  10.609  29.086  1.00  0.00    -0.287 OA
ATOM    575  OP2   C A  26       3.274   9.104  29.061  1.00  0.00    -0.624 OA
ATOM    576  C5'   C A  26       1.100  10.390  30.484  1.00  0.00     0.216 C 
ATOM    577  C4'   C A  26      -0.364  10.484  30.843  1.00  0.00     0.180 C 
ATOM    578  C3'   C A  26      -0.688  10.195  32.303  1.00  0.00     0.198 C 
ATOM    579  O4'   C A  26      -1.097   9.483  30.084  1.00  0.00    -0.353 OA
ATOM    580  O3'   C A  26      -0.638  11.383  33.090  1.00  0.00    -0.279 OA
ATOM    581  C2'   C A  26      -2.091   9.607  32.227  1.00  0.00     0.199 C 
ATOM    582  P     A A  27       0.468  11.531  34.250  1.00  0.00     0.408 P 
ATOM    583  OP1   A A  27       0.806  12.974  34.351  1.00  0.00    -0.624 OA
ATOM    584  OP2   A A  27       1.550  10.541  34.015  1.00  0.00    -0.624 OA
ATOM    585  O5'   A A  27      -0.310  11.114  35.575  1.00  0.00    -0.287 OA
ATOM    586  C5'   A A  27      -1.567  11.704  35.904  1.00  0.00     0.216 C 
ATOM    587  C4'   A A  27      -2.240  10.921  37.007  1.00  0.00     0.180 C 
ATOM    588  C3'   A A  27      -1.306  10.228  37.990  1.00  0.00     0.198 C 
ATOM    589  O4'   A A  27      -3.008   9.836  36.414  1.00  0.00    -0.353 OA
ATOM    590  C2'   A A  27      -2.172   9.084  38.497  1.00  0.00     0.199 C 
ATOM    591  O2'   A A  27      -3.148   9.543  39.413  1.00  0.00    -0.388 OA
ATOM    592  C1'   A A  27      -2.870   8.667  37.205  1.00  0.00     0.262 C 
ATOM    593 'HO2   A A  27      -2.751  10.266  39.899  1.00  0.00     0.210 HD
ATOM    594  N9    A A  27      -2.127   7.671  36.434  1.00  0.00    -0.294 N 
ATOM    595  C4    A A  27      -2.121   6.314  36.651  1.00  0.00     0.167 A 
ATOM    596  C8    A A  27      -1.297   7.883  35.361  1.00  0.00     0.214 A 
ATOM    597  N3    A A  27      -2.791   5.638  37.600  1.00  0.00    -0.222 NA
ATOM    598  C5    A A  27      -1.279   5.782  35.692  1.00  0.00     0.149 A 
ATOM    599  C2    A A  27      -2.541   4.334  37.510  1.00  0.00     0.237 A 
ATOM    600  N1    A A  27      -1.757   3.678  36.645  1.00  0.00    -0.222 NA
ATOM    601  C6    A A  27      -1.098   4.388  35.704  1.00  0.00     0.155 A 
ATOM    602  N6    A A  27      -0.319   3.732  34.843  1.00  0.00    -0.382 N 
ATOM    603  H61   A A  27       0.183   4.242  34.130  1.00  0.00     0.157 HD
ATOM    604  H62   A A  27      -0.232   2.727  34.904  1.00  0.00     0.157 HD
ATOM    605  N7    A A  27      -0.764   6.785  34.880  1.00  0.00    -0.236 NA
ATOM    606  O2'   C A  26      -3.064  10.621  32.063  1.00  0.00    -0.388 OA
ATOM    607  C1'   C A  26      -1.999   8.799  30.935  1.00  0.00     0.264 C 
ATOM    608 'HO2   C A  26      -2.662  11.437  32.362  1.00  0.00     0.210 HD
ATOM    609  N1    C A  26      -1.509   7.422  31.120  1.00  0.00    -0.278 N 
ATOM    610  C6    C A  26      -0.325   7.020  30.565  1.00  0.00     0.102 A 
ATOM    611  C2    C A  26      -2.274   6.527  31.871  1.00  0.00     0.352 A 
ATOM    612  C5    C A  26       0.123   5.769  30.724  1.00  0.00     0.067 A 
ATOM    613  C4    C A  26      -0.678   4.878  31.494  1.00  0.00     0.128 A 
ATOM    614  N4    C A  26      -0.284   3.621  31.686  1.00  0.00    -0.384 N 
ATOM    615  N3    C A  26      -1.833   5.260  32.042  1.00  0.00    -0.177 NA
ATOM    616  H41   C A  26       0.584   3.291  31.289  1.00  0.00     0.157 HD
ATOM    617  H42   C A  26      -0.860   2.992  32.229  1.00  0.00     0.157 HD
ATOM    618  O2    C A  26      -3.341   6.915  32.366  1.00  0.00    -0.244 OA
ATOM    619  C1'   T A  25      -0.326   7.371  26.106  1.00  0.00     0.264 C 
ATOM    620  O2'   T A  25      -0.464   9.735  26.456  1.00  0.00    -0.388 OA
ATOM    621  N1    T A  25      -0.412   6.108  26.852  1.00  0.00    -0.280 N 
ATOM    622  C6    T A  25       0.645   5.226  26.890  1.00  0.00     0.104 A 
ATOM    623  C2    T A  25      -1.593   5.831  27.516  1.00  0.00     0.331 A 
ATOM    624  C5    T A  25       0.589   4.070  27.558  1.00  0.00     0.092 A 
ATOM    625  C4    T A  25      -0.599   3.714  28.269  1.00  0.00     0.250 A 
ATOM    626  N3    T A  25      -1.613   4.639  28.190  1.00  0.00    -0.275 N 
ATOM    627  O4    T A  25      -0.767   2.689  28.931  1.00  0.00    -0.268 OA
ATOM    628  H3    T A  25      -2.473   4.413  28.671  1.00  0.00     0.173 HD
ATOM    629  O2    T A  25      -2.549   6.586  27.508  1.00  0.00    -0.246 OA
ATOM    630 'HO2   T A  25       0.115  10.462  26.685  1.00  0.00     0.210 HD
ATOM    631  C1'   A A  24       1.465   3.045  23.225  1.00  0.00     0.262 C 
ATOM    632  O4'   A A  24       2.469   2.074  22.987  1.00  0.00    -0.353 OA
BRANCH 588 633
ATOM    633  O3'   A A  27      -0.886  11.105  39.032  1.00  0.00    -0.279 OA
BRANCH 633 634
ATOM    634  P     G A  28       0.607  10.985  39.620  1.00  0.00     0.408 P 
ATOM    635  OP2   G A  28       0.596  10.025  40.754  1.00  0.00    -0.624 OA
ATOM    636  OP1   G A  28       1.515  10.749  38.470  1.00  0.00    -0.624 OA
BRANCH 634 637
ATOM    637  O5'   G A  28       0.911  12.439  40.197  1.00  0.00    -0.287 OA
BRANCH 637 638
ATOM    638  C5'   G A  28       1.894  12.633  41.212  1.00  0.00     0.216 C 
BRANCH 638 639
ATOM    639  C4'   G A  28       1.259  13.208  42.458  1.00  0.00     0.180 C 
ATOM    640  C3'   G A  28       1.332  12.337  43.702  1.00  0.00     0.198 C 
ATOM    641  C2'   G A  28       0.202  12.901  44.558  1.00  0.00     0.199 C 
ATOM    642  O2'   G A  28       0.612  14.082  45.220  1.00  0.00    -0.388 OA
ATOM    643  C1'   G A  28      -0.836  13.271  43.495  1.00  0.00     0.262 C 
ATOM    644 'HO2   G A  28       1.566  14.119  45.149  1.00  0.00     0.210 HD
ATOM    645  O4'   G A  28      -0.167  13.371  42.251  1.00  0.00    -0.353 OA
ATOM    646  N9    G A  28      -1.914  12.295  43.367  1.00  0.00    -0.293 N 
ATOM    647  C8    G A  28      -2.186  11.493  42.284  1.00  0.00     0.214 A 
ATOM    648  C4    G A  28      -2.862  11.996  44.316  1.00  0.00     0.187 A 
ATOM    649  N7    G A  28      -3.220  10.719  42.464  1.00  0.00    -0.234 NA
ATOM    650  C5    G A  28      -3.658  11.026  43.747  1.00  0.00     0.173 A 
ATOM    651  C6    G A  28      -4.745  10.507  44.498  1.00  0.00     0.292 A 
ATOM    652  O6    G A  28      -5.568   9.642  44.172  1.00  0.00    -0.265 OA
ATOM    653  N1    G A  28      -4.828  11.098  45.754  1.00  0.00    -0.153 N 
ATOM    654  C2    G A  28      -3.976  12.063  46.226  1.00  0.00     0.703 A 
ATOM    655  H1    G A  28      -5.571  10.791  46.361  1.00  0.00     0.187 HD
ATOM    656  N3    G A  28      -2.962  12.556  45.540  1.00  0.00    -0.044 NA
ATOM    657  N2    G A  28      -4.219  12.506  47.463  1.00  0.00    -0.233 N 
ATOM    658  H21   G A  28      -3.620  13.217  47.857  1.00  0.00     0.174 HD
ATOM    659  H22   G A  28      -4.992  12.137  47.998  1.00  0.00     0.174 HD
BRANCH 640 660
ATOM    660  O3'   G A  28       2.603  12.438  44.339  1.00  0.00    -0.279 OA
BRANCH 660 661
ATOM    661  P     A A  29       3.529  11.130  44.489  1.00  0.00     0.408 P 
ATOM    662  OP2   A A  29       3.717  10.530  43.144  1.00  0.00    -0.624 OA
ATOM    663  OP1   A A  29       4.717  11.526  45.288  1.00  0.00    -0.624 OA
BRANCH 661 664
ATOM    664  O5'   A A  29       2.651  10.133  45.368  1.00  0.00    -0.287 OA
BRANCH 664 665
ATOM    665  C5'   A A  29       1.978   9.025  44.770  1.00  0.00     0.216 C 
BRANCH 665 666
ATOM    666  C4'   A A  29       2.617   7.727  45.206  1.00  0.00     0.180 C 
ATOM    667  O4'   A A  29       1.586   6.821  45.675  1.00  0.00    -0.353 OA
ATOM    668  C1'   A A  29       1.963   5.485  45.389  1.00  0.00     0.262 C 
ATOM    669  N9    A A  29       0.895   4.864  44.602  1.00  0.00    -0.294 N 
ATOM    670  C2'   A A  29       3.315   5.521  44.673  1.00  0.00     0.199 C 
ATOM    671  C8    A A  29      -0.042   5.486  43.812  1.00  0.00     0.214 A 
ATOM    672  C4    A A  29       0.631   3.519  44.511  1.00  0.00     0.167 A 
ATOM    673  N7    A A  29      -0.875   4.656  43.232  1.00  0.00    -0.236 NA
ATOM    674  C5    A A  29      -0.459   3.405  43.667  1.00  0.00     0.149 A 
ATOM    675  C6    A A  29      -0.932   2.106  43.410  1.00  0.00     0.155 A 
ATOM    676  N6    A A  29      -1.974   1.838  42.620  1.00  0.00    -0.382 N 
ATOM    677  N1    A A  29      -0.290   1.074  44.000  1.00  0.00    -0.222 NA
ATOM    678  H62   A A  29      -2.266   0.882  42.474  1.00  0.00     0.157 HD
ATOM    679  H61   A A  29      -2.469   2.595  42.169  1.00  0.00     0.157 HD
ATOM    680  C2    A A  29       0.755   1.341  44.796  1.00  0.00     0.237 A 
ATOM    681  N3    A A  29       1.291   2.516  45.116  1.00  0.00    -0.222 NA
ATOM    682  O2'   A A  29       4.338   5.346  45.636  1.00  0.00    -0.388 OA
ATOM    683  C3'   A A  29       3.327   6.940  44.115  1.00  0.00     0.198 C 
ATOM    684 'HO2   A A  29       5.014   5.992  45.435  1.00  0.00     0.210 HD
ATOM    685  O3'   A A  29       4.647   7.429  43.895  1.00  0.00    -0.279 OA
ATOM    686  P     A A  30       5.337   7.254  42.451  1.00  0.00     0.408 P 
ATOM    687  O5'   A A  30       5.767   5.720  42.413  1.00  0.00    -0.287 OA
ATOM    688  OP2   A A  30       4.308   7.476  41.403  1.00  0.00    -0.624 OA
ATOM    689  OP1   A A  30       6.565   8.088  42.462  1.00  0.00    -0.624 OA
ATOM    690  C5'   A A  30       6.705   5.197  43.351  1.00  0.00     0.216 C 
ATOM    691  C4'   A A  30       6.808   3.696  43.206  1.00  0.00     0.180 C 
ATOM    692  C3'   A A  30       7.005   3.178  41.790  1.00  0.00     0.198 C 
ATOM    693  O4'   A A  30       5.559   3.089  43.621  1.00  0.00    -0.353 OA
ATOM    694  O3'   A A  30       8.372   3.249  41.395  1.00  0.00    -0.279 OA
ATOM    695  C2'   A A  30       6.499   1.741  41.890  1.00  0.00     0.199 C 
ATOM    696  P     G A  31       8.764   3.136  39.838  1.00  0.00     0.408 P 
ATOM    697  O5'   G A  31       8.589   1.584  39.513  1.00  0.00    -0.287 OA
ATOM    698  OP1   G A  31      10.207   3.467  39.733  1.00  0.00    -0.624 OA
ATOM    699  OP2   G A  31       7.774   3.909  39.042  1.00  0.00    -0.624 OA
ATOM    700  C5'   G A  31       7.487   1.107  38.739  1.00  0.00     0.216 C 
ATOM    701  C4'   G A  31       7.902   0.917  37.297  1.00  0.00     0.180 C 
ATOM    702  O4'   G A  31       9.063   1.754  37.031  1.00  0.00    -0.353 OA
ATOM    703  C3'   G A  31       8.328  -0.500  36.924  1.00  0.00     0.198 C 
ATOM    704  C1'   G A  31      10.047   1.006  36.346  1.00  0.00     0.262 C 
ATOM    705  C2'   G A  31       9.371  -0.266  35.836  1.00  0.00     0.199 C 
ATOM    706  N9    G A  31      11.162   0.770  37.260  1.00  0.00    -0.293 N 
ATOM    707  O2'   G A  31       8.760   0.012  34.591  1.00  0.00    -0.388 OA
ATOM    708 'HO2   G A  31       7.821  -0.138  34.704  1.00  0.00     0.210 HD
ATOM    709  C4    G A  31      11.626  -0.450  37.697  1.00  0.00     0.187 A 
ATOM    710  C8    G A  31      11.956   1.719  37.854  1.00  0.00     0.214 A 
ATOM    711  N3    G A  31      11.128  -1.655  37.355  1.00  0.00    -0.044 NA
ATOM    712  C5    G A  31      12.682  -0.160  38.533  1.00  0.00     0.173 A 
ATOM    713  C2    G A  31      11.786  -2.642  37.934  1.00  0.00     0.703 A 
ATOM    714  N2    G A  31      11.418  -3.907  37.703  1.00  0.00    -0.233 N 
ATOM    715  N1    G A  31      12.849  -2.465  38.781  1.00  0.00    -0.153 N 
ATOM    716  H22   G A  31      11.909  -4.674  38.134  1.00  0.00     0.174 HD
ATOM    717  H21   G A  31      10.638  -4.081  37.085  1.00  0.00     0.174 HD
ATOM    718  C6    G A  31      13.379  -1.235  39.149  1.00  0.00     0.292 A 
ATOM    719  H1    G A  31      13.286  -3.286  39.169  1.00  0.00     0.187 HD
ATOM    720  O6    G A  31      14.341  -1.188  39.925  1.00  0.00    -0.265 OA
ATOM    721  N7    G A  31      12.879   1.211  38.624  1.00  0.00    -0.234 NA
ATOM    722  O2'   A A  30       7.493   0.884  42.422  1.00  0.00    -0.388 OA
ATOM    723  C1'   A A  30       5.373   1.873  42.920  1.00  0.00     0.262 C 
ATOM    724 'HO2   A A  30       8.339   1.229  42.135  1.00  0.00     0.210 HD
ATOM    725  N9    A A  30       4.039   1.883  42.322  1.00  0.00    -0.294 N 
ATOM    726  C8    A A  30       3.359   2.949  41.786  1.00  0.00     0.214 A 
ATOM    727  C4    A A  30       3.208   0.799  42.178  1.00  0.00     0.167 A 
ATOM    728  N7    A A  30       2.177   2.637  41.312  1.00  0.00    -0.236 NA
ATOM    729  C5    A A  30       2.070   1.275  41.554  1.00  0.00     0.149 A 
ATOM    730  C6    A A  30       1.052   0.341  41.286  1.00  0.00     0.155 A 
ATOM    731  N6    A A  30      -0.099   0.648  40.687  1.00  0.00    -0.382 N 
ATOM    732  N1    A A  30       1.261  -0.941  41.659  1.00  0.00    -0.222 NA
ATOM    733  H61   A A  30      -0.277   1.600  40.399  1.00  0.00     0.157 HD
ATOM    734  H62   A A  30      -0.790  -0.069  40.513  1.00  0.00     0.157 HD
ATOM    735  C2    A A  30       2.418  -1.253  42.259  1.00  0.00     0.237 A 
ATOM    736  N3    A A  30       3.448  -0.467  42.562  1.00  0.00    -0.222 NA
BRANCH 703 737
ATOM    737  O3'   G A  31       7.220  -1.269  36.460  1.00  0.00    -0.279 OA
BRANCH 737 738
ATOM    738  P     G A  32       6.558  -2.383  37.415  1.00  0.00     0.408 P 
ATOM    739  OP2   G A  32       7.403  -2.498  38.630  1.00  0.00    -0.624 OA
ATOM    740  OP1   G A  32       5.110  -2.079  37.556  1.00  0.00    -0.624 OA
BRANCH 738 741
ATOM    741  O5'   G A  32       6.708  -3.738  36.587  1.00  0.00    -0.287 OA
BRANCH 741 742
ATOM    742  C5'   G A  32       5.761  -4.797  36.725  1.00  0.00     0.216 C 
BRANCH 742 743
ATOM    743  C4'   G A  32       4.893  -4.887  35.492  1.00  0.00     0.180 C 
ATOM    744  C3'   G A  32       3.393  -4.948  35.753  1.00  0.00     0.198 C 
ATOM    745  C2'   G A  32       2.874  -5.753  34.568  1.00  0.00     0.199 C 
ATOM    746  O3'   G A  32       2.820  -3.644  35.811  1.00  0.00    -0.279 OA
ATOM    747  O2'   G A  32       2.760  -4.944  33.413  1.00  0.00    -0.388 OA
ATOM    748  C1'   G A  32       4.015  -6.747  34.360  1.00  0.00     0.262 C 
ATOM    749 'HO2   G A  32       2.622  -4.046  33.720  1.00  0.00     0.210 HD
ATOM    750  N9    G A  32       3.856  -7.993  35.103  1.00  0.00    -0.293 N 
ATOM    751  O4'   G A  32       5.208  -6.122  34.793  1.00  0.00    -0.353 OA
ATOM    752  C4    G A  32       2.846  -8.912  34.950  1.00  0.00     0.187 A 
ATOM    753  C8    G A  32       4.676  -8.483  36.090  1.00  0.00     0.214 A 
ATOM    754  C5    G A  32       3.119  -9.913  35.858  1.00  0.00     0.173 A 
ATOM    755  N3    G A  32       1.819  -8.821  34.080  1.00  0.00    -0.044 NA
ATOM    756  N7    G A  32       4.278  -9.629  36.570  1.00  0.00    -0.234 NA
ATOM    757  C6    G A  32       2.239 -11.022  35.937  1.00  0.00     0.292 A 
ATOM    758  N1    G A  32       1.191 -10.907  35.031  1.00  0.00    -0.153 N 
ATOM    759  O6    G A  32       2.306 -12.010  36.676  1.00  0.00    -0.265 OA
ATOM    760  H1    G A  32       0.513 -11.653  35.013  1.00  0.00     0.187 HD
ATOM    761  C2    G A  32       1.010  -9.861  34.164  1.00  0.00     0.703 A 
ATOM    762  N2    G A  32      -0.061  -9.932  33.370  1.00  0.00    -0.233 N 
ATOM    763  H21   G A  32      -0.239  -9.186  32.714  1.00  0.00     0.174 HD
ATOM    764  H22   G A  32      -0.687 -10.725  33.425  1.00  0.00     0.174 HD
ATOM    765  P     C A  33       1.588  -3.352  36.804  1.00  0.00     0.408 P 
ATOM    766  O5'   C A  33       0.426  -4.305  36.272  1.00  0.00    -0.287 OA
ATOM    767  OP2   C A  33       1.974  -3.804  38.165  1.00  0.00    -0.624 OA
ATOM    768  OP1   C A  33       1.174  -1.943  36.589  1.00  0.00    -0.624 OA
ATOM    769  C5'   C A  33      -0.364  -3.937  35.141  1.00  0.00     0.216 C 
ATOM    770  C4'   C A  33      -1.401  -5.001  34.858  1.00  0.00     0.180 C 
ATOM    771  C3'   C A  33      -2.420  -5.244  35.962  1.00  0.00     0.198 C 
ATOM    772  O4'   C A  33      -0.737  -6.282  34.703  1.00  0.00    -0.353 OA
ATOM    773  O3'   C A  33      -3.491  -4.305  35.899  1.00  0.00    -0.279 OA
ATOM    774  C2'   C A  33      -2.877  -6.671  35.679  1.00  0.00     0.199 C 
ATOM    775  P     T A  34      -4.458  -4.103  37.170  1.00  0.00     0.408 P 
ATOM    776  OP2   T A  34      -3.643  -3.624  38.315  1.00  0.00    -0.624 OA
ATOM    777  OP1   T A  34      -5.621  -3.300  36.710  1.00  0.00    -0.624 OA
ATOM    778  O5'   T A  34      -4.972  -5.574  37.507  1.00  0.00    -0.287 OA
ATOM    779  C5'   T A  34      -5.914  -6.236  36.663  1.00  0.00     0.216 C 
ATOM    780  C4'   T A  34      -6.459  -7.466  37.351  1.00  0.00     0.180 C 
ATOM    781  C3'   T A  34      -6.852  -7.287  38.810  1.00  0.00     0.198 C 
ATOM    782  O4'   T A  34      -5.430  -8.489  37.389  1.00  0.00    -0.353 OA
ATOM    783  C2'   T A  34      -6.767  -8.710  39.351  1.00  0.00     0.199 C 
ATOM    784  O3'   T A  34      -8.161  -6.734  38.931  1.00  0.00    -0.279 OA
ATOM    785  O2'   T A  34      -7.921  -9.452  39.004  1.00  0.00    -0.388 OA
ATOM    786  C1'   T A  34      -5.571  -9.261  38.569  1.00  0.00     0.264 C 
ATOM    787 'HO2   T A  34      -8.574  -8.810  38.724  1.00  0.00     0.210 HD
ATOM    788  N1    T A  34      -4.303  -9.207  39.310  1.00  0.00    -0.280 N 
ATOM    789  C2    T A  34      -3.794 -10.393  39.808  1.00  0.00     0.331 A 
ATOM    790  C6    T A  34      -3.642  -8.014  39.507  1.00  0.00     0.104 A 
ATOM    791  N3    T A  34      -2.613 -10.275  40.495  1.00  0.00    -0.275 N 
ATOM    792  O2    T A  34      -4.344 -11.468  39.651  1.00  0.00    -0.246 OA
ATOM    793  H3    T A  34      -2.228 -11.127  40.874  1.00  0.00     0.173 HD
ATOM    794  C4    T A  34      -1.902  -9.120  40.729  1.00  0.00     0.250 A 
ATOM    795  C5    T A  34      -2.491  -7.938  40.182  1.00  0.00     0.092 A 
ATOM    796  O4    T A  34      -0.850  -9.178  41.365  1.00  0.00    -0.268 OA
ATOM    797  P     G A  35      -8.374  -5.346  39.714  1.00  0.00     0.408 P 
ATOM    798  OP1   G A  35      -9.782  -4.930  39.489  1.00  0.00    -0.624 OA
ATOM    799  O5'   G A  35      -8.210  -5.741  41.250  1.00  0.00    -0.287 OA
ATOM    800  OP2   G A  35      -7.270  -4.420  39.349  1.00  0.00    -0.624 OA
ATOM    801  C5'   G A  35      -8.809  -6.927  41.773  1.00  0.00     0.216 C 
ATOM    802  C4'   G A  35      -8.490  -7.070  43.243  1.00  0.00     0.180 C 
ATOM    803  C3'   G A  35      -8.338  -5.763  44.010  1.00  0.00     0.198 C 
ATOM    804  O4'   G A  35      -7.203  -7.734  43.382  1.00  0.00    -0.353 OA
ATOM    805  O3'   G A  35      -9.590  -5.291  44.497  1.00  0.00    -0.279 OA
ATOM    806  C2'   G A  35      -7.381  -6.150  45.129  1.00  0.00     0.199 C 
ATOM    807  P     C A  36     -10.052  -3.786  44.171  1.00  0.00     0.408 P 
ATOM    808  OP1   C A  36     -11.322  -3.547  44.904  1.00  0.00    -0.624 OA
ATOM    809  O5'   C A  36      -8.918  -2.887  44.837  1.00  0.00    -0.287 OA
ATOM    810  OP2   C A  36     -10.006  -3.586  42.701  1.00  0.00    -0.624 OA
ATOM    811  C5'   C A  36      -8.615  -2.996  46.227  1.00  0.00     0.216 C 
ATOM    812  C4'   C A  36      -7.688  -1.881  46.647  1.00  0.00     0.180 C 
ATOM    813  C3'   C A  36      -7.913  -0.544  45.956  1.00  0.00     0.198 C 
ATOM    814  O4'   C A  36      -6.325  -2.239  46.295  1.00  0.00    -0.353 OA
ATOM    815  O3'   C A  36      -8.946   0.208  46.588  1.00  0.00    -0.279 OA
ATOM    816  C2'   C A  36      -6.548   0.119  46.082  1.00  0.00     0.199 C 
ATOM    817  P     G A  37      -9.771   1.300  45.743  1.00  0.00     0.408 P 
ATOM    818  O5'   G A  37      -8.756   2.521  45.597  1.00  0.00    -0.287 OA
ATOM    819  OP2   G A  37     -10.035   0.752  44.388  1.00  0.00    -0.624 OA
ATOM    820  OP1   G A  37     -10.908   1.743  46.589  1.00  0.00    -0.624 OA
ATOM    821  C5'   G A  37      -8.277   3.223  46.745  1.00  0.00     0.216 C 
ATOM    822  C4'   G A  37      -7.753   4.582  46.345  1.00  0.00     0.180 C 
ATOM    823  C3'   G A  37      -8.439   5.218  45.142  1.00  0.00     0.198 C 
ATOM    824  O4'   G A  37      -6.357   4.447  45.957  1.00  0.00    -0.353 OA
ATOM    825  O3'   G A  37      -9.570   5.991  45.532  1.00  0.00    -0.279 OA
ATOM    826  C2'   G A  37      -7.329   6.071  44.542  1.00  0.00     0.199 C 
ATOM    827  P     T A  38     -10.760   6.253  44.481  1.00  0.00     0.408 P 
ATOM    828  OP2   T A  38     -11.149   4.954  43.876  1.00  0.00    -0.624 OA
ATOM    829  OP1   T A  38     -11.785   7.078  45.170  1.00  0.00    -0.624 OA
ATOM    830  O5'   T A  38     -10.083   7.146  43.348  1.00  0.00    -0.287 OA
ATOM    831  C5'   T A  38      -9.610   8.462  43.635  1.00  0.00     0.216 C 
ATOM    832  C4'   T A  38      -8.973   9.067  42.407  1.00  0.00     0.180 C 
ATOM    833  C3'   T A  38      -9.796   8.983  41.130  1.00  0.00     0.198 C 
ATOM    834  O4'   T A  38      -7.755   8.338  42.094  1.00  0.00    -0.353 OA
ATOM    835  O3'   T A  38     -10.744  10.043  41.043  1.00  0.00    -0.279 OA
ATOM    836  C2'   T A  38      -8.723   9.068  40.051  1.00  0.00     0.199 C 
ATOM    837  P     G A  39     -12.081   9.851  40.169  1.00  0.00     0.408 P 
ATOM    838  O5'   G A  39     -11.541   9.628  38.686  1.00  0.00    -0.287 OA
ATOM    839  OP2   G A  39     -12.757   8.606  40.614  1.00  0.00    -0.624 OA
ATOM    840  OP1   G A  39     -12.818  11.140  40.205  1.00  0.00    -0.624 OA
ATOM    841  C5'   G A  39     -10.793  10.643  38.018  1.00  0.00     0.216 C 
ATOM    842  C4'   G A  39     -10.332  10.149  36.667  1.00  0.00     0.180 C 
ATOM    843  O4'   G A  39      -9.300   9.144  36.841  1.00  0.00    -0.353 OA
ATOM    844  C3'   G A  39     -11.378   9.429  35.829  1.00  0.00     0.198 C 
ATOM    845  C1'   G A  39      -9.334   8.244  35.745  1.00  0.00     0.262 C 
ATOM    846  N9    G A  39      -9.426   6.882  36.265  1.00  0.00    -0.293 N 
ATOM    847  C2'   G A  39     -10.516   8.635  34.854  1.00  0.00     0.199 C 
ATOM    848  C4    G A  39      -9.090   5.731  35.595  1.00  0.00     0.187 A 
ATOM    849  C8    G A  39      -9.865   6.493  37.506  1.00  0.00     0.214 A 
ATOM    850  N3    G A  39      -8.610   5.656  34.336  1.00  0.00    -0.044 NA
ATOM    851  C5    G A  39      -9.350   4.704  36.478  1.00  0.00     0.173 A 
ATOM    852  C2    G A  39      -8.385   4.409  33.967  1.00  0.00     0.703 A 
ATOM    853  N1    G A  39      -8.610   3.318  34.767  1.00  0.00    -0.153 N 
ATOM    854  N2    G A  39      -7.907   4.156  32.747  1.00  0.00    -0.233 N 
ATOM    855  C6    G A  39      -9.102   3.368  36.066  1.00  0.00     0.292 A 
ATOM    856  H1    G A  39      -8.404   2.408  34.384  1.00  0.00     0.187 HD
ATOM    857  O6    G A  39      -9.270   2.320  36.700  1.00  0.00    -0.265 OA
ATOM    858  H22   G A  39      -7.737   3.204  32.449  1.00  0.00     0.174 HD
ATOM    859  H21   G A  39      -7.723   4.924  32.119  1.00  0.00     0.174 HD
ATOM    860  N7    G A  39      -9.838   5.200  37.680  1.00  0.00    -0.234 NA
ATOM    861  C1'   T A  38      -7.600   8.249  40.687  1.00  0.00     0.264 C 
ATOM    862  O2'   T A  38      -8.275  10.401  39.886  1.00  0.00    -0.388 OA
ATOM    863  N1    T A  38      -7.611   6.830  40.306  1.00  0.00    -0.280 N 
ATOM    864  C6    T A  38      -8.294   5.893  41.050  1.00  0.00     0.104 A 
ATOM    865  C2    T A  38      -6.909   6.463  39.171  1.00  0.00     0.331 A 
ATOM    866  C5    T A  38      -8.313   4.597  40.723  1.00  0.00     0.092 A 
ATOM    867  C4    T A  38      -7.612   4.140  39.566  1.00  0.00     0.250 A 
ATOM    868  N3    T A  38      -6.956   5.127  38.867  1.00  0.00    -0.275 N 
ATOM    869  O4    T A  38      -7.540   2.975  39.174  1.00  0.00    -0.268 OA
ATOM    870  H3    T A  38      -6.468   4.840  38.033  1.00  0.00     0.173 HD
ATOM    871  O2    T A  38      -6.291   7.258  38.488  1.00  0.00    -0.246 OA
ATOM    872 'HO2   T A  38      -8.886  10.956  40.373  1.00  0.00     0.210 HD
ATOM    873  O2'   G A  37      -7.142   7.264  45.282  1.00  0.00    -0.388 OA
ATOM    874  C1'   G A  37      -6.122   5.164  44.759  1.00  0.00     0.262 C 
ATOM    875 'HO2   G A  37      -7.927   7.381  45.818  1.00  0.00     0.210 HD
ATOM    876  N9    G A  37      -5.905   4.200  43.684  1.00  0.00    -0.293 N 
ATOM    877  C8    G A  37      -6.377   2.913  43.620  1.00  0.00     0.214 A 
ATOM    878  C4    G A  37      -5.179   4.403  42.535  1.00  0.00     0.187 A 
ATOM    879  N7    G A  37      -6.009   2.281  42.539  1.00  0.00    -0.234 NA
ATOM    880  C5    G A  37      -5.249   3.212  41.842  1.00  0.00     0.173 A 
ATOM    881  C6    G A  37      -4.583   3.108  40.594  1.00  0.00     0.292 A 
ATOM    882  O6    G A  37      -4.526   2.139  39.827  1.00  0.00    -0.265 OA
ATOM    883  N1    G A  37      -3.931   4.290  40.262  1.00  0.00    -0.153 N 
ATOM    884  C2    G A  37      -3.924   5.427  41.028  1.00  0.00     0.703 A 
ATOM    885  H1    G A  37      -3.425   4.310  39.391  1.00  0.00     0.187 HD
ATOM    886  N3    G A  37      -4.542   5.540  42.190  1.00  0.00    -0.044 NA
ATOM    887  N2    G A  37      -3.240   6.463  40.538  1.00  0.00    -0.233 N 
ATOM    888  H21   G A  37      -3.202   7.324  41.062  1.00  0.00     0.174 HD
ATOM    889  H22   G A  37      -2.763   6.387  39.650  1.00  0.00     0.174 HD
ATOM    890  O2'   C A  36      -6.352   0.640  47.382  1.00  0.00    -0.388 OA
ATOM    891  C1'   C A  36      -5.618  -1.079  45.887  1.00  0.00     0.264 C 
ATOM    892 'HO2   C A  36      -7.223   0.835  47.731  1.00  0.00     0.210 HD
ATOM    893  N1    C A  36      -5.179  -1.262  44.493  1.00  0.00    -0.278 N 
ATOM    894  C6    C A  36      -5.666  -2.285  43.726  1.00  0.00     0.102 A 
ATOM    895  C2    C A  36      -4.250  -0.366  43.960  1.00  0.00     0.352 A 
ATOM    896  C5    C A  36      -5.268  -2.448  42.456  1.00  0.00     0.067 A 
ATOM    897  C4    C A  36      -4.322  -1.514  41.941  1.00  0.00     0.128 A 
ATOM    898  N4    C A  36      -3.887  -1.621  40.686  1.00  0.00    -0.384 N 
ATOM    899  N3    C A  36      -3.842  -0.514  42.681  1.00  0.00    -0.177 NA
ATOM    900  H41   C A  36      -4.224  -2.363  40.090  1.00  0.00     0.157 HD
ATOM    901  H42   C A  36      -3.214  -0.955  40.333  1.00  0.00     0.157 HD
ATOM    902  O2    C A  36      -3.820   0.546  44.677  1.00  0.00    -0.244 OA
ATOM    903  C1'   G A  35      -6.435  -7.085  44.380  1.00  0.00     0.262 C 
ATOM    904  O2'   G A  35      -8.046  -6.878  46.143  1.00  0.00    -0.388 OA
ATOM    905  N9    G A  35      -5.326  -6.392  43.731  1.00  0.00    -0.293 N 
ATOM    906  C4    G A  35      -4.533  -5.419  44.289  1.00  0.00     0.187 A 
ATOM    907  C8    G A  35      -4.871  -6.571  42.447  1.00  0.00     0.214 A 
ATOM    908  C5    G A  35      -3.641  -5.062  43.299  1.00  0.00     0.173 A 
ATOM    909  N3    G A  35      -4.636  -4.936  45.544  1.00  0.00    -0.044 NA
ATOM    910  N7    G A  35      -3.866  -5.797  42.144  1.00  0.00    -0.234 NA
ATOM    911  C6    G A  35      -2.677  -4.057  43.580  1.00  0.00     0.292 A 
ATOM    912  N1    G A  35      -2.802  -3.577  44.878  1.00  0.00    -0.153 N 
ATOM    913  O6    G A  35      -1.802  -3.598  42.838  1.00  0.00    -0.265 OA
ATOM    914  C2    G A  35      -3.733  -4.004  45.790  1.00  0.00     0.703 A 
ATOM    915  H1    G A  35      -2.156  -2.861  45.168  1.00  0.00     0.187 HD
ATOM    916  N2    G A  35      -3.696  -3.418  46.989  1.00  0.00    -0.233 N 
ATOM    917  H21   G A  35      -4.365  -3.700  47.691  1.00  0.00     0.174 HD
ATOM    918  H22   G A  35      -3.016  -2.703  47.194  1.00  0.00     0.174 HD
ATOM    919 'HO2   G A  35      -8.965  -6.615  46.104  1.00  0.00     0.210 HD
ATOM    920  C1'   C A  33      -1.584  -7.316  35.174  1.00  0.00     0.264 C 
ATOM    921  O2'   C A  33      -3.832  -6.703  34.634  1.00  0.00    -0.388 OA
ATOM    922  N1    C A  33      -0.862  -8.077  36.207  1.00  0.00    -0.278 N 
ATOM    923  C2    C A  33      -1.332  -9.344  36.562  1.00  0.00     0.352 A 
ATOM    924  C6    C A  33       0.249  -7.559  36.814  1.00  0.00     0.102 A 
ATOM    925  O2    C A  33      -2.339  -9.793  35.996  1.00  0.00    -0.244 OA
ATOM    926  N3    C A  33      -0.680 -10.050  37.511  1.00  0.00    -0.177 NA
ATOM    927  C4    C A  33       0.403  -9.537  38.097  1.00  0.00     0.128 A 
ATOM    928  C5    C A  33       0.908  -8.249  37.754  1.00  0.00     0.067 A 
ATOM    929 'HO2   C A  33      -4.004  -5.794  34.388  1.00  0.00     0.210 HD
BRANCH 847 930
ATOM    930  O2'   G A  39     -10.041   9.461  33.808  1.00  0.00    -0.388 OA
ATOM    931 'HO2   G A  39      -9.348  10.004  34.185  1.00  0.00     0.210 HD
ENDBRANCH 847 930
BRANCH 844 932
ATOM    932  O3'   G A  39     -12.248  10.344  35.167  1.00  0.00    -0.279 OA
BRANCH 932 933
ATOM    933  P     G A  40     -11.813  11.883  35.002  1.00  0.00     0.408 P 
ATOM    934  OP2   G A  40     -12.363  12.390  33.719  1.00  0.00    -0.624 OA
ATOM    935  OP1   G A  40     -12.154  12.576  36.271  1.00  0.00    -0.624 OA
BRANCH 933 936
ATOM    936  O5'   G A  40     -10.225  11.825  34.878  1.00  0.00    -0.287 OA
BRANCH 936 937
ATOM    937  C5'   G A  40      -9.514  12.780  34.093  1.00  0.00     0.216 C 
BRANCH 937 938
ATOM    938  C4'   G A  40      -9.394  12.299  32.665  1.00  0.00     0.180 C 
ATOM    939  C3'   G A  40      -7.979  11.999  32.190  1.00  0.00     0.198 C 
ATOM    940  C2'   G A  40      -8.102  12.181  30.683  1.00  0.00     0.199 C 
ATOM    941  C1'   G A  40      -9.040  13.385  30.613  1.00  0.00     0.262 C 
ATOM    942  O2'   G A  40      -8.743  11.066  30.087  1.00  0.00    -0.388 OA
ATOM    943  N9    G A  40      -8.343  14.667  30.584  1.00  0.00    -0.293 N 
ATOM    944  O4'   G A  40      -9.860  13.347  31.768  1.00  0.00    -0.353 OA
ATOM    945  C8    G A  40      -8.020  15.458  31.659  1.00  0.00     0.214 A 
ATOM    946  C4    G A  40      -7.874  15.321  29.470  1.00  0.00     0.187 A 
ATOM    947  N7    G A  40      -7.390  16.551  31.325  1.00  0.00    -0.234 NA
ATOM    948  C5    G A  40      -7.290  16.478  29.942  1.00  0.00     0.173 A 
ATOM    949  C6    G A  40      -6.704  17.377  29.014  1.00  0.00     0.292 A 
ATOM    950  N1    G A  40      -6.824  16.913  27.709  1.00  0.00    -0.153 N 
ATOM    951  O6    G A  40      -6.138  18.454  29.232  1.00  0.00    -0.265 OA
ATOM    952  C2    G A  40      -7.427  15.737  27.343  1.00  0.00     0.703 A 
ATOM    953  H1    G A  40      -6.435  17.491  26.981  1.00  0.00     0.187 HD
ATOM    954  N2    G A  40      -7.434  15.463  26.036  1.00  0.00    -0.233 N 
ATOM    955  N3    G A  40      -7.979  14.892  28.194  1.00  0.00    -0.044 NA
ATOM    956  H21   G A  40      -7.864  14.608  25.719  1.00  0.00     0.174 HD
ATOM    957  H22   G A  40      -7.016  16.097  25.372  1.00  0.00     0.174 HD
ATOM    958 'HO2   G A  40      -8.529  10.308  30.632  1.00  0.00     0.210 HD
BRANCH 939 959
ATOM    959  O3'   G A  40      -7.568  10.683  32.549  1.00  0.00    -0.279 OA
BRANCH 959 960
ATOM    960  P     A A  41      -6.333  10.482  33.560  1.00  0.00     0.408 P 
ATOM    961  OP2   A A  41      -6.857  10.489  34.950  1.00  0.00    -0.624 OA
ATOM    962  OP1   A A  41      -5.555   9.313  33.076  1.00  0.00    -0.624 OA
BRANCH 960 963
ATOM    963  O5'   A A  41      -5.447  11.790  33.347  1.00  0.00    -0.287 OA
BRANCH 963 964
ATOM    964  C5'   A A  41      -5.840  13.045  33.904  1.00  0.00     0.216 C 
BRANCH 964 965
ATOM    965  C4'   A A  41      -4.753  13.577  34.810  1.00  0.00     0.180 C 
ATOM    966  O4'   A A  41      -4.366  14.899  34.345  1.00  0.00    -0.353 OA
ATOM    967  C1'   A A  41      -4.177  15.762  35.452  1.00  0.00     0.262 C 
ATOM    968  C2'   A A  41      -4.251  14.913  36.719  1.00  0.00     0.199 C 
ATOM    969  N9    A A  41      -5.186  16.819  35.385  1.00  0.00    -0.294 N 
ATOM    970  O2'   A A  41      -2.952  14.443  37.026  1.00  0.00    -0.388 OA
ATOM    971  C3'   A A  41      -5.156  13.771  36.267  1.00  0.00     0.198 C 
ATOM    972 'HO2   A A  41      -3.060  13.572  37.409  1.00  0.00     0.210 HD
ATOM    973  O3'   A A  41      -4.943  12.583  37.026  1.00  0.00    -0.279 OA
ATOM    974  P     A A  42      -6.016  12.140  38.140  1.00  0.00     0.408 P 
ATOM    975  OP1   A A  42      -5.568  10.835  38.692  1.00  0.00    -0.624 OA
ATOM    976  O5'   A A  42      -5.865  13.238  39.286  1.00  0.00    -0.287 OA
ATOM    977  OP2   A A  42      -7.375  12.258  37.557  1.00  0.00    -0.624 OA
ATOM    978  C5'   A A  42      -4.736  13.239  40.160  1.00  0.00     0.216 C 
ATOM    979  C4'   A A  42      -4.555  14.605  40.783  1.00  0.00     0.180 C 
ATOM    980  C3'   A A  42      -5.666  15.048  41.728  1.00  0.00     0.198 C 
ATOM    981  O4'   A A  42      -4.540  15.604  39.726  1.00  0.00    -0.353 OA
ATOM    982  O3'   A A  42      -5.426  14.604  43.063  1.00  0.00    -0.279 OA
ATOM    983  C2'   A A  42      -5.618  16.566  41.606  1.00  0.00     0.199 C 
ATOM    984  P     T A  43      -6.654  14.464  44.093  1.00  0.00     0.408 P 
ATOM    985  OP1   T A  43      -6.091  14.028  45.396  1.00  0.00    -0.624 OA
ATOM    986  O5'   T A  43      -7.197  15.953  44.258  1.00  0.00    -0.287 OA
ATOM    987  OP2   T A  43      -7.717  13.654  43.446  1.00  0.00    -0.624 OA
ATOM    988  C5'   T A  43      -6.385  16.973  44.839  1.00  0.00     0.216 C 
ATOM    989  C4'   T A  43      -7.098  18.305  44.782  1.00  0.00     0.180 C 
ATOM    990  C3'   T A  43      -8.506  18.315  45.361  1.00  0.00     0.198 C 
ATOM    991  O4'   T A  43      -7.264  18.689  43.390  1.00  0.00    -0.353 OA
ATOM    992  O3'   T A  43      -8.486  18.568  46.764  1.00  0.00    -0.279 OA
ATOM    993  C2'   T A  43      -9.184  19.435  44.579  1.00  0.00     0.199 C 
ATOM    994  P     C A  44      -9.565  17.857  47.722  1.00  0.00     0.408 P 
ATOM    995  OP2   C A  44      -9.666  16.427  47.329  1.00  0.00    -0.624 OA
ATOM    996  OP1   C A  44      -9.207  18.209  49.120  1.00  0.00    -0.624 OA
ATOM    997  O5'   C A  44     -10.937  18.586  47.365  1.00  0.00    -0.287 OA
ATOM    998  C5'   C A  44     -12.142  17.844  47.172  1.00  0.00     0.216 C 
ATOM    999  C4'   C A  44     -12.733  18.156  45.818  1.00  0.00     0.180 C 
ATOM   1000  C3'   C A  44     -14.052  17.461  45.512  1.00  0.00     0.198 C 
ATOM   1001  O4'   C A  44     -11.820  17.690  44.785  1.00  0.00    -0.353 OA
ATOM   1002  O3'   C A  44     -15.161  18.210  45.999  1.00  0.00    -0.279 OA
ATOM   1003  C2'   C A  44     -14.031  17.369  43.993  1.00  0.00     0.199 C 
ATOM   1004  P     A A  45     -16.504  17.451  46.456  1.00  0.00     0.408 P 
ATOM   1005  OP1   A A  45     -17.335  18.436  47.195  1.00  0.00    -0.624 OA
ATOM   1006  OP2   A A  45     -16.133  16.169  47.107  1.00  0.00    -0.624 OA
ATOM   1007  O5'   A A  45     -17.243  17.117  45.084  1.00  0.00    -0.287 OA
ATOM   1008  C5'   A A  45     -17.665  18.157  44.204  1.00  0.00     0.216 C 
ATOM   1009  C4'   A A  45     -18.540  17.595  43.108  1.00  0.00     0.180 C 
ATOM   1010  O4'   A A  45     -17.687  17.011  42.082  1.00  0.00    -0.353 OA
ATOM   1011  C3'   A A  45     -19.476  16.467  43.528  1.00  0.00     0.198 C 
ATOM   1012  C1'   A A  45     -18.205  15.753  41.687  1.00  0.00     0.262 C 
ATOM   1013  N9    A A  45     -17.312  14.710  42.191  1.00  0.00    -0.294 N 
ATOM   1014  C2'   A A  45     -19.625  15.670  42.239  1.00  0.00     0.199 C 
ATOM   1015  C4    A A  45     -17.120  13.463  41.646  1.00  0.00     0.167 A 
ATOM   1016  C8    A A  45     -16.496  14.766  43.293  1.00  0.00     0.214 A 
ATOM   1017  C5    A A  45     -16.191  12.836  42.455  1.00  0.00     0.149 A 
ATOM   1018  N3    A A  45     -17.711  12.950  40.552  1.00  0.00    -0.222 NA
ATOM   1019  C6    A A  45     -15.816  11.528  42.102  1.00  0.00     0.155 A 
ATOM   1020  N7    A A  45     -15.803  13.671  43.495  1.00  0.00    -0.236 NA
ATOM   1021  N6    A A  45     -14.928  10.804  42.783  1.00  0.00    -0.382 N 
ATOM   1022  N1    A A  45     -16.390  10.982  41.008  1.00  0.00    -0.222 NA
ATOM   1023  H62   A A  45     -14.687   9.872  42.470  1.00  0.00     0.157 HD
ATOM   1024  H61   A A  45     -14.485  11.191  43.602  1.00  0.00     0.157 HD
ATOM   1025  C2    A A  45     -17.278  11.712  40.320  1.00  0.00     0.237 A 
ATOM   1026  O2'   A A  45     -20.503  16.316  41.336  1.00  0.00    -0.388 OA
ATOM   1027 'HO2   A A  45     -21.030  16.928  41.852  1.00  0.00     0.210 HD
ATOM   1028  O3'   A A  45     -20.722  16.967  44.007  1.00  0.00    -0.279 OA
ATOM   1029  P     C A  46     -21.564  16.116  45.082  1.00  0.00     0.408 P 
ATOM   1030  OP2   C A  46     -20.630  15.613  46.120  1.00  0.00    -0.624 OA
ATOM   1031  O5'   C A  46     -22.098  14.866  44.251  1.00  0.00    -0.287 OA
ATOM   1032  OP1   C A  46     -22.734  16.939  45.482  1.00  0.00    -0.624 OA
ATOM   1033  C5'   C A  46     -22.980  15.042  43.143  1.00  0.00     0.216 C 
ATOM   1034  C4'   C A  46     -23.079  13.761  42.347  1.00  0.00     0.180 C 
ATOM   1035  O4'   C A  46     -21.761  13.413  41.845  1.00  0.00    -0.353 OA
ATOM   1036  C3'   C A  46     -23.525  12.536  43.133  1.00  0.00     0.198 C 
ATOM   1037  C1'   C A  46     -21.579  12.009  41.909  1.00  0.00     0.264 C 
ATOM   1038  C2'   C A  46     -22.912  11.392  42.334  1.00  0.00     0.199 C 
ATOM   1039  N1    C A  46     -20.468  11.727  42.834  1.00  0.00    -0.278 N 
ATOM   1040  O2'   C A  46     -23.673  11.115  41.173  1.00  0.00    -0.388 OA
ATOM   1041 'HO2   C A  46     -24.526  11.533  41.297  1.00  0.00     0.210 HD
ATOM   1042  C2    C A  46     -19.736  10.549  42.671  1.00  0.00     0.352 A 
ATOM   1043  C6    C A  46     -20.151  12.603  43.836  1.00  0.00     0.102 A 
ATOM   1044  N3    C A  46     -18.710  10.285  43.511  1.00  0.00    -0.177 NA
ATOM   1045  O2    C A  46     -20.043   9.771  41.757  1.00  0.00    -0.244 OA
ATOM   1046  C4    C A  46     -18.406  11.149  44.482  1.00  0.00     0.128 A 
ATOM   1047  N4    C A  46     -17.385  10.848  45.283  1.00  0.00    -0.384 N 
ATOM   1048  C5    C A  46     -19.134  12.359  44.672  1.00  0.00     0.067 A 
ATOM   1049  H42   C A  46     -16.879   9.985  45.145  1.00  0.00     0.157 HD
ATOM   1050  H41   C A  46     -17.122  11.475  46.029  1.00  0.00     0.157 HD
ATOM   1051  O3'   C A  46     -24.945  12.450  43.206  1.00  0.00    -0.279 OA
ATOM   1052  P     G A  47     -25.635  11.591  44.377  1.00  0.00     0.408 P 
ATOM   1053  OP1   G A  47     -27.093  11.556  44.095  1.00  0.00    -0.624 OA
ATOM   1054  O5'   G A  47     -25.052  10.122  44.175  1.00  0.00    -0.287 OA
ATOM   1055  OP2   G A  47     -25.154  12.109  45.684  1.00  0.00    -0.624 OA
ATOM   1056  C5'   G A  47     -25.435   9.325  43.055  1.00  0.00     0.216 C 
ATOM   1057  C4'   G A  47     -24.921   7.912  43.221  1.00  0.00     0.180 C 
ATOM   1058  C3'   G A  47     -25.048   7.326  44.621  1.00  0.00     0.198 C 
ATOM   1059  O4'   G A  47     -23.496   7.900  42.957  1.00  0.00    -0.353 OA
ATOM   1060  C2'   G A  47     -23.945   6.272  44.644  1.00  0.00     0.199 C 
ATOM   1061  O3'   G A  47     -26.337   6.759  44.838  1.00  0.00    -0.279 OA
ATOM   1062  C1'   G A  47     -22.869   6.930  43.778  1.00  0.00     0.262 C 
ATOM   1063  O2'   G A  47     -24.368   5.080  44.010  1.00  0.00    -0.388 OA
ATOM   1064  N9    G A  47     -21.817   7.590  44.547  1.00  0.00    -0.293 N 
ATOM   1065  C8    G A  47     -21.787   8.897  44.966  1.00  0.00     0.214 A 
ATOM   1066  C4    G A  47     -20.653   7.013  44.993  1.00  0.00     0.187 A 
ATOM   1067  N7    G A  47     -20.705   9.200  45.631  1.00  0.00    -0.234 NA
ATOM   1068  C5    G A  47     -19.979   8.016  45.656  1.00  0.00     0.173 A 
ATOM   1069  C6    G A  47     -18.715   7.720  46.238  1.00  0.00     0.292 A 
ATOM   1070  O6    G A  47     -17.960   8.470  46.868  1.00  0.00    -0.265 OA
ATOM   1071  N1    G A  47     -18.354   6.394  46.026  1.00  0.00    -0.153 N 
ATOM   1072  C2    G A  47     -19.109   5.471  45.345  1.00  0.00     0.703 A 
ATOM   1073  H1    G A  47     -17.468   6.093  46.403  1.00  0.00     0.187 HD
ATOM   1074  N2    G A  47     -18.595   4.244  45.244  1.00  0.00    -0.233 N 
ATOM   1075  N3    G A  47     -20.282   5.731  44.802  1.00  0.00    -0.044 NA
ATOM   1076  H21   G A  47     -19.114   3.532  44.753  1.00  0.00     0.174 HD
ATOM   1077  H22   G A  47     -17.697   4.026  45.653  1.00  0.00     0.174 HD
ATOM   1078 'HO2   G A  47     -25.320   5.046  44.107  1.00  0.00     0.210 HD
ATOM   1079  C1'   C A  44     -12.553  17.074  43.739  1.00  0.00     0.264 C 
ATOM   1080  O2'   C A  44     -14.354  18.614  43.403  1.00  0.00    -0.388 OA
ATOM   1081  N1    C A  44     -12.223  15.638  43.723  1.00  0.00    -0.278 N 
ATOM   1082  C6    C A  44     -11.490  15.076  44.731  1.00  0.00     0.102 A 
ATOM   1083  C2    C A  44     -12.672  14.854  42.656  1.00  0.00     0.352 A 
ATOM   1084  C5    C A  44     -11.186  13.773  44.722  1.00  0.00     0.067 A 
ATOM   1085  C4    C A  44     -11.654  12.998  43.621  1.00  0.00     0.128 A 
ATOM   1086  N4    C A  44     -11.385  11.694  43.556  1.00  0.00    -0.384 N 
ATOM   1087  N3    C A  44     -12.369  13.536  42.632  1.00  0.00    -0.177 NA
ATOM   1088  H41   C A  44     -10.847  11.252  44.287  1.00  0.00     0.157 HD
ATOM   1089  H42   C A  44     -11.721  11.148  42.775  1.00  0.00     0.157 HD
ATOM   1090  O2    C A  44     -13.338  15.384  41.756  1.00  0.00    -0.244 OA
ATOM   1091 'HO2   C A  44     -14.861  19.103  44.053  1.00  0.00     0.210 HD
ATOM   1092  C1'   T A  43      -8.543  19.267  43.200  1.00  0.00     0.264 C 
ATOM   1093  O2'   T A  43      -8.827  20.705  45.093  1.00  0.00    -0.388 OA
ATOM   1094  N1    T A  43      -9.308  18.404  42.290  1.00  0.00    -0.280 N 
ATOM   1095  C2    T A  43     -10.104  19.012  41.337  1.00  0.00     0.331 A 
ATOM   1096  C6    T A  43      -9.235  17.033  42.381  1.00  0.00     0.104 A 
ATOM   1097  N3    T A  43     -10.789  18.152  40.518  1.00  0.00    -0.275 N 
ATOM   1098  O2    T A  43     -10.196  20.222  41.224  1.00  0.00    -0.246 OA
ATOM   1099  H3    T A  43     -11.380  18.572  39.819  1.00  0.00     0.173 HD
ATOM   1100  C4    T A  43     -10.761  16.777  40.552  1.00  0.00     0.250 A 
ATOM   1101  O4    T A  43     -11.429  16.138  39.742  1.00  0.00    -0.268 OA
ATOM   1102  C5    T A  43      -9.918  16.225  41.565  1.00  0.00     0.092 A 
ATOM   1103 'HO2   T A  43      -8.329  20.547  45.896  1.00  0.00     0.210 HD
ATOM   1104  C1'   A A  42      -5.306  16.730  40.120  1.00  0.00     0.262 C 
ATOM   1105  O2'   A A  42      -4.547  17.107  42.356  1.00  0.00    -0.388 OA
ATOM   1106  N9    A A  42      -6.494  16.796  39.271  1.00  0.00    -0.294 N 
ATOM   1107  C8    A A  42      -7.067  15.777  38.552  1.00  0.00     0.214 A 
ATOM   1108  C4    A A  42      -7.269  17.905  39.032  1.00  0.00     0.167 A 
ATOM   1109  N7    A A  42      -8.131  16.138  37.881  1.00  0.00    -0.236 NA
ATOM   1110  C5    A A  42      -8.271  17.487  38.176  1.00  0.00     0.149 A 
ATOM   1111  C6    A A  42      -9.209  18.450  37.772  1.00  0.00     0.155 A 
ATOM   1112  N6    A A  42     -10.225  18.193  36.948  1.00  0.00    -0.382 N 
ATOM   1113  N1    A A  42      -9.067  19.706  38.249  1.00  0.00    -0.222 NA
ATOM   1114  H61   A A  42     -10.342  17.256  36.584  1.00  0.00     0.157 HD
ATOM   1115  H62   A A  42     -10.870  18.925  36.691  1.00  0.00     0.157 HD
ATOM   1116  C2    A A  42      -8.043  19.964  39.075  1.00  0.00     0.237 A 
ATOM   1117  N3    A A  42      -7.096  19.143  39.524  1.00  0.00    -0.222 NA
ATOM   1118 'HO2   A A  42      -4.218  16.405  42.918  1.00  0.00     0.210 HD
ATOM   1119  C4    A A  41      -5.153  18.018  36.056  1.00  0.00     0.167 A 
ATOM   1120  C8    A A  41      -6.344  16.833  34.649  1.00  0.00     0.214 A 
ATOM   1121  N3    A A  41      -4.204  18.453  36.903  1.00  0.00    -0.222 NA
ATOM   1122  C5    A A  41      -6.301  18.691  35.679  1.00  0.00     0.149 A 
ATOM   1123  C2    A A  41      -4.507  19.666  37.362  1.00  0.00     0.237 A 
ATOM   1124  N1    A A  41      -5.569  20.434  37.090  1.00  0.00    -0.222 NA
ATOM   1125  C6    A A  41      -6.502  19.967  36.235  1.00  0.00     0.155 A 
ATOM   1126  N6    A A  41      -7.558  20.735  35.963  1.00  0.00    -0.382 N 
ATOM   1127  H61   A A  41      -8.268  20.405  35.325  1.00  0.00     0.157 HD
ATOM   1128  H62   A A  41      -7.643  21.642  36.398  1.00  0.00     0.157 HD
ATOM   1129  N7    A A  41      -7.046  17.931  34.789  1.00  0.00    -0.236 NA
BRANCH 1061 1130
ATOM   1130  P     T A  48     -27.168   7.129  46.167  1.00  0.00     0.408 P 
ATOM   1131  OP1   T A  48     -27.529   5.843  46.814  1.00  0.00    -0.624 OA
ATOM   1132  OP2   T A  48     -28.238   8.104  45.830  1.00  0.00    -0.624 OA
BRANCH 1130 1133
ATOM   1133  O5'   T A  48     -26.099   7.855  47.102  1.00  0.00    -0.287 OA
BRANCH 1133 1134
ATOM   1134  C5'   T A  48     -25.470   7.165  48.183  1.00  0.00     0.216 C 
BRANCH 1134 1135
ATOM   1135  C4'   T A  48     -24.080   7.711  48.407  1.00  0.00     0.180 C 
ATOM   1136  O4'   T A  48     -23.958   8.972  47.694  1.00  0.00    -0.353 OA
ATOM   1137  C1'   T A  48     -23.219   9.895  48.474  1.00  0.00     0.264 C 
ATOM   1138  N1    T A  48     -24.102  11.017  48.822  1.00  0.00    -0.280 N 
ATOM   1139  C2'   T A  48     -22.675   9.137  49.686  1.00  0.00     0.199 C 
ATOM   1140  C2    T A  48     -23.514  12.238  49.101  1.00  0.00     0.331 A 
ATOM   1141  C6    T A  48     -25.471  10.864  48.871  1.00  0.00     0.104 A 
ATOM   1142  O2    T A  48     -22.311  12.418  49.063  1.00  0.00    -0.246 OA
ATOM   1143  N3    T A  48     -24.388  13.243  49.427  1.00  0.00    -0.275 N 
ATOM   1144  H3    T A  48     -23.982  14.143  49.631  1.00  0.00     0.173 HD
ATOM   1145  C4    T A  48     -25.759  13.158  49.500  1.00  0.00     0.250 A 
ATOM   1146  O4    T A  48     -26.409  14.150  49.828  1.00  0.00    -0.268 OA
ATOM   1147  C5    T A  48     -26.292  11.868  49.193  1.00  0.00     0.092 A 
ATOM   1148  O2'   T A  48     -21.417   8.584  49.348  1.00  0.00    -0.388 OA
ATOM   1149  C3'   T A  48     -23.728   8.049  49.852  1.00  0.00     0.198 C 
ATOM   1150 'HO2   T A  48     -21.218   7.928  50.017  1.00  0.00     0.210 HD
BRANCH 1149 1151
ATOM   1151  O3'   T A  48     -23.226   6.913  50.553  1.00  0.00    -0.279 OA
BRANCH 1151 1152
ATOM   1152  P     C A  49     -22.123   5.964  49.861  1.00  0.00     0.408 P 
ATOM   1153  OP1   C A  49     -20.831   6.205  50.552  1.00  0.00    -0.624 OA
ATOM   1154  OP2   C A  49     -22.208   6.126  48.387  1.00  0.00    -0.624 OA
BRANCH 1152 1155
ATOM   1155  O5'   C A  49     -22.601   4.486  50.219  1.00  0.00    -0.287 OA
BRANCH 1155 1156
ATOM   1156  C5'   C A  49     -21.836   3.652  51.089  1.00  0.00     0.216 C 
BRANCH 1156 1157
ATOM   1157  C4'   C A  49     -21.865   2.223  50.597  1.00  0.00     0.180 C 
ATOM   1158  C3'   C A  49     -21.214   1.977  49.241  1.00  0.00     0.198 C 
ATOM   1159  C2'   C A  49     -21.941   0.728  48.759  1.00  0.00     0.199 C 
ATOM   1160  O2'   C A  49     -21.458  -0.433  49.406  1.00  0.00    -0.388 OA
ATOM   1161  C1'   C A  49     -23.359   1.012  49.253  1.00  0.00     0.264 C 
ATOM   1162 'HO2   C A  49     -20.501  -0.371  49.407  1.00  0.00     0.210 HD
ATOM   1163  N1    C A  49     -24.192   1.716  48.264  1.00  0.00    -0.278 N 
ATOM   1164  O4'   C A  49     -23.249   1.822  50.410  1.00  0.00    -0.353 OA
ATOM   1165  C2    C A  49     -25.068   0.971  47.477  1.00  0.00     0.352 A 
ATOM   1166  C6    C A  49     -24.106   3.072  48.104  1.00  0.00     0.102 A 
ATOM   1167  O2    C A  49     -25.135  -0.252  47.654  1.00  0.00    -0.244 OA
ATOM   1168  N3    C A  49     -25.821   1.598  46.545  1.00  0.00    -0.177 NA
ATOM   1169  C4    C A  49     -25.723   2.919  46.390  1.00  0.00     0.128 A 
ATOM   1170  C5    C A  49     -24.845   3.709  47.186  1.00  0.00     0.067 A 
ATOM   1171  N4    C A  49     -26.479   3.493  45.453  1.00  0.00    -0.384 N 
ATOM   1172  H42   C A  49     -27.096   2.926  44.888  1.00  0.00     0.157 HD
ATOM   1173  H41   C A  49     -26.436   4.491  45.300  1.00  0.00     0.157 HD
BRANCH 1158 1174
ATOM   1174  O3'   C A  49     -19.805   1.779  49.350  1.00  0.00    -0.279 OA
ATOM   1175  P     G A  50     -18.793   2.950  48.906  1.00  0.00     0.408 P 
ATOM   1176  O5'   G A  50     -18.043   2.358  47.629  1.00  0.00    -0.287 OA
ATOM   1177  OP1   G A  50     -17.798   3.106  49.997  1.00  0.00    -0.624 OA
ATOM   1178  OP2   G A  50     -19.587   4.128  48.468  1.00  0.00    -0.624 OA
ATOM   1179  C5'   G A  50     -17.052   1.339  47.760  1.00  0.00     0.216 C 
ATOM   1180  C4'   G A  50     -17.375   0.176  46.847  1.00  0.00     0.180 C 
ATOM   1181  C3'   G A  50     -16.956   0.342  45.392  1.00  0.00     0.198 C 
ATOM   1182  O4'   G A  50     -18.817   0.008  46.786  1.00  0.00    -0.353 OA
ATOM   1183  C2'   G A  50     -17.914  -0.598  44.669  1.00  0.00     0.199 C 
ATOM   1184  O3'   G A  50     -15.591  -0.017  45.189  1.00  0.00    -0.279 OA
ATOM   1185  C1'   G A  50     -19.192  -0.408  45.484  1.00  0.00     0.262 C 
ATOM   1186  O2'   G A  50     -17.492  -1.945  44.788  1.00  0.00    -0.388 OA
ATOM   1187  N9    G A  50     -20.093   0.592  44.917  1.00  0.00    -0.293 N 
ATOM   1188  C4    G A  50     -20.632   0.575  43.654  1.00  0.00     0.187 A 
ATOM   1189  C8    G A  50     -20.566   1.728  45.525  1.00  0.00     0.214 A 
ATOM   1190  N3    G A  50     -20.426  -0.374  42.718  1.00  0.00    -0.044 NA
ATOM   1191  C5    G A  50     -21.405   1.714  43.571  1.00  0.00     0.173 A 
ATOM   1192  C2    G A  50     -21.077  -0.112  41.600  1.00  0.00     0.703 A 
ATOM   1193  N2    G A  50     -20.974  -0.945  40.561  1.00  0.00    -0.233 N 
ATOM   1194  N1    G A  50     -21.874   0.988  41.417  1.00  0.00    -0.153 N 
ATOM   1195  H21   G A  50     -20.396  -1.768  40.642  1.00  0.00     0.174 HD
ATOM   1196  H22   G A  50     -21.461  -0.744  39.699  1.00  0.00     0.174 HD
ATOM   1197  H1    G A  50     -22.329   1.083  40.524  1.00  0.00     0.187 HD
ATOM   1198  C6    G A  50     -22.103   1.978  42.364  1.00  0.00     0.292 A 
ATOM   1199  O6    G A  50     -22.842   2.933  42.091  1.00  0.00    -0.265 OA
ATOM   1200  N7    G A  50     -21.354   2.432  44.760  1.00  0.00    -0.234 NA
ATOM   1201 'HO2   G A  50     -16.535  -1.928  44.837  1.00  0.00     0.210 HD
ATOM   1202  P     G A  51     -14.720   0.742  44.068  1.00  0.00     0.408 P 
ATOM   1203  O5'   G A  51     -15.508   0.470  42.708  1.00  0.00    -0.287 OA
ATOM   1204  OP2   G A  51     -14.759   2.200  44.350  1.00  0.00    -0.624 OA
ATOM   1205  OP1   G A  51     -13.410   0.047  43.989  1.00  0.00    -0.624 OA
ATOM   1206  C5'   G A  51     -15.752  -0.862  42.255  1.00  0.00     0.216 C 
ATOM   1207  C4'   G A  51     -16.103  -0.863  40.784  1.00  0.00     0.180 C 
ATOM   1208  O4'   G A  51     -17.545  -0.782  40.623  1.00  0.00    -0.353 OA
ATOM   1209  C3'   G A  51     -15.608   0.317  39.964  1.00  0.00     0.198 C 
ATOM   1210  C1'   G A  51     -17.844  -0.130  39.396  1.00  0.00     0.262 C 
ATOM   1211  N9    G A  51     -18.683   1.032  39.673  1.00  0.00    -0.293 N 
ATOM   1212  C2'   G A  51     -16.512   0.237  38.741  1.00  0.00     0.199 C 
ATOM   1213  C4    G A  51     -19.510   1.669  38.779  1.00  0.00     0.187 A 
ATOM   1214  C8    G A  51     -18.802   1.710  40.861  1.00  0.00     0.214 A 
ATOM   1215  N3    G A  51     -19.694   1.325  37.487  1.00  0.00    -0.044 NA
ATOM   1216  C5    G A  51     -20.084   2.704  39.485  1.00  0.00     0.173 A 
ATOM   1217  C2    G A  51     -20.548   2.128  36.881  1.00  0.00     0.703 A 
ATOM   1218  N2    G A  51     -20.843   1.931  35.593  1.00  0.00    -0.233 N 
ATOM   1219  N1    G A  51     -21.175   3.185  37.490  1.00  0.00    -0.153 N 
ATOM   1220  H22   G A  51     -21.490   2.541  35.115  1.00  0.00     0.174 HD
ATOM   1221  H21   G A  51     -20.405   1.166  35.101  1.00  0.00     0.174 HD
ATOM   1222  C6    G A  51     -21.002   3.558  38.818  1.00  0.00     0.292 A 
ATOM   1223  H1    G A  51     -21.812   3.736  36.933  1.00  0.00     0.187 HD
ATOM   1224  O6    G A  51     -21.618   4.530  39.267  1.00  0.00    -0.265 OA
ATOM   1225  N7    G A  51     -19.628   2.718  40.797  1.00  0.00    -0.234 NA
ATOM   1226  O2'   G A  51     -16.122  -0.819  37.883  1.00  0.00    -0.388 OA
ATOM   1227 'HO2   G A  51     -15.168  -0.879  37.937  1.00  0.00     0.210 HD
ATOM   1228  O3'   G A  51     -14.228   0.214  39.630  1.00  0.00    -0.279 OA
ATOM   1229  P     G A  52     -13.411   1.532  39.203  1.00  0.00     0.408 P 
ATOM   1230  O5'   G A  52     -14.140   2.026  37.874  1.00  0.00    -0.287 OA
ATOM   1231  OP2   G A  52     -13.607   2.564  40.253  1.00  0.00    -0.624 OA
ATOM   1232  OP1   G A  52     -12.035   1.102  38.845  1.00  0.00    -0.624 OA
ATOM   1233  C5'   G A  52     -13.944   1.346  36.636  1.00  0.00     0.216 C 
ATOM   1234  C4'   G A  52     -14.882   1.888  35.580  1.00  0.00     0.180 C 
ATOM   1235  O4'   G A  52     -16.238   1.937  36.097  1.00  0.00    -0.353 OA
ATOM   1236  C3'   G A  52     -14.640   3.322  35.138  1.00  0.00     0.198 C 
ATOM   1237  C1'   G A  52     -16.956   2.961  35.426  1.00  0.00     0.262 C 
ATOM   1238  C2'   G A  52     -15.975   3.681  34.496  1.00  0.00     0.199 C 
ATOM   1239  N9    G A  52     -17.557   3.842  36.421  1.00  0.00    -0.293 N 
ATOM   1240  O2'   G A  52     -16.088   3.120  33.202  1.00  0.00    -0.388 OA
ATOM   1241 'HO2   G A  52     -15.209   2.839  32.945  1.00  0.00     0.210 HD
ATOM   1242  C8    G A  52     -17.288   3.884  37.768  1.00  0.00     0.214 A 
ATOM   1243  C4    G A  52     -18.508   4.807  36.188  1.00  0.00     0.187 A 
ATOM   1244  N7    G A  52     -17.981   4.788  38.404  1.00  0.00    -0.234 NA
ATOM   1245  C5    G A  52     -18.757   5.382  37.416  1.00  0.00     0.173 A 
ATOM   1246  C6    G A  52     -19.711   6.431  37.499  1.00  0.00     0.292 A 
ATOM   1247  O6    G A  52     -20.075   7.068  38.493  1.00  0.00    -0.265 OA
ATOM   1248  N1    G A  52     -20.263   6.719  36.255  1.00  0.00    -0.153 N 
ATOM   1249  C2    G A  52     -19.942   6.082  35.085  1.00  0.00     0.703 A 
ATOM   1250  H1    G A  52     -20.951   7.455  36.215  1.00  0.00     0.187 HD
ATOM   1251  N2    G A  52     -20.581   6.505  33.991  1.00  0.00    -0.233 N 
ATOM   1252  N3    G A  52     -19.060   5.104  34.992  1.00  0.00    -0.044 NA
ATOM   1253  H21   G A  52     -20.380   6.070  33.102  1.00  0.00     0.174 HD
ATOM   1254  H22   G A  52     -21.254   7.256  34.049  1.00  0.00     0.174 HD
ATOM   1255  O3'   G A  52     -13.550   3.428  34.227  1.00  0.00    -0.279 OA
ATOM   1256  P     G A  53     -12.804   4.841  34.036  1.00  0.00     0.408 P 
ATOM   1257  OP2   G A  53     -12.510   5.406  35.376  1.00  0.00    -0.624 OA
ATOM   1258  OP1   G A  53     -11.694   4.625  33.071  1.00  0.00    -0.624 OA
ATOM   1259  O5'   G A  53     -13.896   5.764  33.332  1.00  0.00    -0.287 OA
ATOM   1260  C5'   G A  53     -14.416   5.433  32.046  1.00  0.00     0.216 C 
ATOM   1261  C4'   G A  53     -15.476   6.430  31.635  1.00  0.00     0.180 C 
ATOM   1262  C3'   G A  53     -15.077   7.895  31.705  1.00  0.00     0.198 C 
ATOM   1263  O4'   G A  53     -16.602   6.351  32.547  1.00  0.00    -0.353 OA
ATOM   1264  O3'   G A  53     -14.296   8.289  30.580  1.00  0.00    -0.279 OA
ATOM   1265  C2'   G A  53     -16.435   8.587  31.747  1.00  0.00     0.199 C 
ATOM   1266  P     T A  54     -13.362   9.595  30.676  1.00  0.00     0.408 P 
ATOM   1267  OP2   T A  54     -12.584   9.529  31.939  1.00  0.00    -0.624 OA
ATOM   1268  O5'   T A  54     -14.396  10.802  30.791  1.00  0.00    -0.287 OA
ATOM   1269  OP1   T A  54     -12.647   9.723  29.380  1.00  0.00    -0.624 OA
ATOM   1270  C5'   T A  54     -15.294  11.103  29.726  1.00  0.00     0.216 C 
ATOM   1271  C4'   T A  54     -16.179  12.269  30.099  1.00  0.00     0.180 C 
ATOM   1272  O4'   T A  54     -17.003  11.904  31.238  1.00  0.00    -0.353 OA
ATOM   1273  C3'   T A  54     -15.459  13.525  30.567  1.00  0.00     0.198 C 
ATOM   1274  C1'   T A  54     -17.254  13.054  32.028  1.00  0.00     0.264 C 
ATOM   1275  N1    T A  54     -16.798  12.787  33.400  1.00  0.00    -0.280 N 
ATOM   1276  C2'   T A  54     -16.543  14.237  31.367  1.00  0.00     0.199 C 
ATOM   1277  C6    T A  54     -15.865  11.811  33.670  1.00  0.00     0.104 A 
ATOM   1278  C2    T A  54     -17.339  13.553  34.415  1.00  0.00     0.331 A 
ATOM   1279  C5    T A  54     -15.438  11.553  34.911  1.00  0.00     0.092 A 
ATOM   1280  C4    T A  54     -15.949  12.307  36.012  1.00  0.00     0.250 A 
ATOM   1281  N3    T A  54     -16.875  13.263  35.671  1.00  0.00    -0.275 N 
ATOM   1282  O4    T A  54     -15.624  12.176  37.192  1.00  0.00    -0.268 OA
ATOM   1283  H3    T A  54     -17.257  13.817  36.424  1.00  0.00     0.173 HD
ATOM   1284  O2    T A  54     -18.167  14.425  34.219  1.00  0.00    -0.246 OA
ATOM   1285  O2'   T A  54     -17.459  14.894  30.513  1.00  0.00    -0.388 OA
ATOM   1286 'HO2   T A  54     -17.053  14.931  29.647  1.00  0.00     0.210 HD
ATOM   1287  O2'   G A  53     -17.022   8.635  30.459  1.00  0.00    -0.388 OA
ATOM   1288  C1'   G A  53     -17.239   7.617  32.614  1.00  0.00     0.262 C 
ATOM   1289 'HO2   G A  53     -16.334   8.401  29.835  1.00  0.00     0.210 HD
ATOM   1290  N9    G A  53     -17.322   8.023  34.013  1.00  0.00    -0.293 N 
ATOM   1291  C8    G A  53     -16.643   7.484  35.079  1.00  0.00     0.214 A 
ATOM   1292  C4    G A  53     -18.101   9.034  34.524  1.00  0.00     0.187 A 
ATOM   1293  N7    G A  53     -16.923   8.062  36.215  1.00  0.00    -0.234 NA
ATOM   1294  C5    G A  53     -17.844   9.046  35.879  1.00  0.00     0.173 A 
ATOM   1295  C6    G A  53     -18.514   9.999  36.692  1.00  0.00     0.292 A 
ATOM   1296  O6    G A  53     -18.423  10.173  37.913  1.00  0.00    -0.265 OA
ATOM   1297  N1    G A  53     -19.361  10.805  35.942  1.00  0.00    -0.153 N 
ATOM   1298  C2    G A  53     -19.545  10.710  34.587  1.00  0.00     0.703 A 
ATOM   1299  H1    G A  53     -19.881  11.516  36.436  1.00  0.00     0.187 HD
ATOM   1300  N3    G A  53     -18.932   9.828  33.818  1.00  0.00    -0.044 NA
ATOM   1301  N2    G A  53     -20.402  11.578  34.046  1.00  0.00    -0.233 N 
ATOM   1302  H22   G A  53     -20.877  12.258  34.624  1.00  0.00     0.174 HD
ATOM   1303  H21   G A  53     -20.574  11.551  33.051  1.00  0.00     0.174 HD
BRANCH 1273 1304
ATOM   1304  O3'   T A  54     -14.990  14.305  29.470  1.00  0.00    -0.279 OA
BRANCH 1304 1305
ATOM   1305  P     C A  55     -13.413  14.577  29.300  1.00  0.00     0.408 P 
ATOM   1306  OP2   C A  55     -12.677  13.369  29.753  1.00  0.00    -0.624 OA
ATOM   1307  OP1   C A  55     -13.199  15.093  27.924  1.00  0.00    -0.624 OA
BRANCH 1305 1308
ATOM   1308  O5'   C A  55     -13.110  15.756  30.328  1.00  0.00    -0.287 OA
BRANCH 1308 1309
ATOM   1309  C5'   C A  55     -13.743  17.028  30.195  1.00  0.00     0.216 C 
BRANCH 1309 1310
ATOM   1310  C4'   C A  55     -12.817  18.004  29.508  1.00  0.00     0.180 C 
ATOM   1311  O4'   C A  55     -13.530  18.648  28.419  1.00  0.00    -0.353 OA
ATOM   1312  C1'   C A  55     -13.107  19.996  28.304  1.00  0.00     0.264 C 
ATOM   1313  N1    C A  55     -14.279  20.868  28.491  1.00  0.00    -0.278 N 
ATOM   1314  C2'   C A  55     -11.998  20.228  29.331  1.00  0.00     0.199 C 
ATOM   1315  C2    C A  55     -14.313  22.100  27.834  1.00  0.00     0.352 A 
ATOM   1316  C6    C A  55     -15.317  20.485  29.293  1.00  0.00     0.102 A 
ATOM   1317  N3    C A  55     -15.384  22.908  27.999  1.00  0.00    -0.177 NA
ATOM   1318  O2    C A  55     -13.359  22.424  27.114  1.00  0.00    -0.244 OA
ATOM   1319  C4    C A  55     -16.393  22.524  28.780  1.00  0.00     0.128 A 
ATOM   1320  N4    C A  55     -17.428  23.353  28.910  1.00  0.00    -0.384 N 
ATOM   1321  C5    C A  55     -16.386  21.273  29.463  1.00  0.00     0.067 A 
ATOM   1322  H42   C A  55     -17.424  24.236  28.417  1.00  0.00     0.157 HD
ATOM   1323  H41   C A  55     -18.214  23.101  29.492  1.00  0.00     0.157 HD
ATOM   1324  C3'   C A  55     -12.322  19.158  30.368  1.00  0.00     0.198 C 
BRANCH 1314 1325
ATOM   1325  O2'   C A  55     -10.750  19.980  28.713  1.00  0.00    -0.388 OA
ATOM   1326 'HO2   C A  55     -10.391  19.191  29.120  1.00  0.00     0.210 HD
ENDBRANCH 1314 1325
BRANCH 1324 1327
ATOM   1327  O3'   C A  55     -11.182  18.786  31.139  1.00  0.00    -0.279 OA
BRANCH 1327 1328
ATOM   1328  P     A A  56     -10.746  19.678  32.404  1.00  0.00     0.408 P 
ATOM   1329  O5'   A A  56      -9.592  20.619  31.835  1.00  0.00    -0.287 OA
ATOM   1330  C5'   A A  56      -8.367  20.070  31.351  1.00  0.00     0.216 C 
ATOM   1331  C4'   A A  56      -7.357  21.170  31.120  1.00  0.00     0.180 C 
ATOM   1332  O4'   A A  56      -7.590  21.757  29.813  1.00  0.00    -0.353 OA
ATOM   1333  C3'   A A  56      -7.436  22.346  32.084  1.00  0.00     0.182 C 
ATOM   1334  C1'   A A  56      -7.339  23.150  29.862  1.00  0.00     0.262 C 
ATOM   1335  N9    A A  56      -8.570  23.852  29.504  1.00  0.00    -0.294 N 
ATOM   1336  C2'   A A  56      -6.831  23.482  31.266  1.00  0.00     0.198 C 
ATOM   1337  C4    A A  56      -8.675  24.933  28.663  1.00  0.00     0.167 A 
ATOM   1338  C8    A A  56      -9.848  23.580  29.927  1.00  0.00     0.214 A 
ATOM   1339  C5    A A  56     -10.019  25.257  28.630  1.00  0.00     0.149 A 
ATOM   1340  N3    A A  56      -7.681  25.555  28.005  1.00  0.00    -0.222 NA
ATOM   1341  C6    A A  56     -10.393  26.349  27.829  1.00  0.00     0.155 A 
ATOM   1342  N7    A A  56     -10.751  24.393  29.434  1.00  0.00    -0.236 NA
ATOM   1343  N1    A A  56      -9.418  26.996  27.155  1.00  0.00    -0.222 NA
ATOM   1344  N6    A A  56     -11.648  26.780  27.701  1.00  0.00    -0.382 N 
ATOM   1345  C2    A A  56      -8.156  26.567  27.284  1.00  0.00     0.237 A 
ATOM   1346  H61   A A  56     -12.394  26.314  28.197  1.00  0.00     0.157 HD
ATOM   1347  H62   A A  56     -11.848  27.568  27.104  1.00  0.00     0.157 HD
ATOM   1348  O2'   A A  56      -5.417  23.415  31.265  1.00  0.00    -0.388 OA
ATOM   1349 'HO2   A A  56      -5.157  22.982  32.079  1.00  0.00     0.210 HD
ATOM   1350  O3'   A A  56      -6.717  22.101  33.298  1.00  0.00    -0.390 OA
ATOM   1351 'HO3   A A  56      -7.069  21.292  33.676  1.00  0.00     0.210 HD
ATOM   1352  OP2   A A  56     -11.893  20.536  32.795  1.00  0.00    -0.624 OA
ATOM   1353  OP1   A A  56     -10.140  18.763  33.403  1.00  0.00    -0.624 OA
ENDBRANCH 1327 1328
ENDBRANCH 1324 1327
ENDBRANCH 1309 1310
ENDBRANCH 1308 1309
ENDBRANCH 1305 1308
ENDBRANCH 1304 1305
ENDBRANCH 1273 1304
ENDBRANCH 1158 1174
ENDBRANCH 1156 1157
ENDBRANCH 1155 1156
ENDBRANCH 1152 1155
ENDBRANCH 1151 1152
ENDBRANCH 1149 1151
ENDBRANCH 1134 1135
ENDBRANCH 1133 1134
ENDBRANCH 1130 1133
ENDBRANCH 1061 1130
ENDBRANCH 964 965
ENDBRANCH 963 964
ENDBRANCH 960 963
ENDBRANCH 959 960
ENDBRANCH 939 959
ENDBRANCH 937 938
ENDBRANCH 936 937
ENDBRANCH 933 936
ENDBRANCH 932 933
ENDBRANCH 844 932
BRANCH 927 1354
ATOM   1354  N4    C A  33       1.012 -10.272  39.025  1.00  0.00    -0.384 N 
ATOM   1355  H42   C A  33       0.620 -11.164  39.294  1.00  0.00     0.157 HD
ATOM   1356  H41   C A  33       1.862  -9.942  39.459  1.00  0.00     0.157 HD
ENDBRANCH 927 1354
ENDBRANCH 742 743
ENDBRANCH 741 742
ENDBRANCH 738 741
ENDBRANCH 737 738
ENDBRANCH 703 737
ENDBRANCH 665 666
ENDBRANCH 664 665
ENDBRANCH 661 664
ENDBRANCH 660 661
ENDBRANCH 640 660
ENDBRANCH 638 639
ENDBRANCH 637 638
ENDBRANCH 634 637
ENDBRANCH 633 634
ENDBRANCH 588 633
BRANCH 561 1357
ATOM   1357  O2'   A A  24       2.470   5.087  22.488  1.00  0.00    -0.388 OA
ATOM   1358 'HO2   A A  24       3.217   5.645  22.709  1.00  0.00     0.210 HD
ENDBRANCH 561 1357
BRANCH 631 1359
ATOM   1359  N9    A A  24       0.546   2.520  24.233  1.00  0.00    -0.294 N 
ATOM   1360  C8    A A  24      -0.700   2.992  24.568  1.00  0.00     0.214 A 
ATOM   1361  N7    A A  24      -1.289   2.302  25.515  1.00  0.00    -0.236 NA
ATOM   1362  C5    A A  24      -0.371   1.308  25.825  1.00  0.00     0.149 A 
ATOM   1363  C4    A A  24       0.764   1.431  25.043  1.00  0.00     0.167 A 
ATOM   1364  C6    A A  24      -0.396   0.251  26.751  1.00  0.00     0.155 A 
ATOM   1365  N3    A A  24       1.852   0.644  25.074  1.00  0.00    -0.222 NA
ATOM   1366  C2    A A  24       1.710  -0.317  25.984  1.00  0.00     0.237 A 
ATOM   1367  N1    A A  24       0.681  -0.560  26.805  1.00  0.00    -0.222 NA
ATOM   1368  N6    A A  24      -1.418   0.007  27.570  1.00  0.00    -0.382 N 
ATOM   1369  H62   A A  24      -1.365  -0.772  28.213  1.00  0.00     0.157 HD
ATOM   1370  H61   A A  24      -2.236   0.598  27.549  1.00  0.00     0.157 HD
ENDBRANCH 631 1359
ENDBRANCH 557 558
ENDBRANCH 556 557
ENDBRANCH 553 556
ENDBRANCH 552 553
ENDBRANCH 534 552
BRANCH 535 1371
ATOM   1371  O2'   G A  23       7.862  -0.708  28.224  1.00  0.00    -0.388 OA
ATOM   1372 'HO2   G A  23       8.742  -0.683  28.602  1.00  0.00     0.210 HD
ENDBRANCH 535 1371
ENDBRANCH 532 533
ENDBRANCH 531 532
ENDBRANCH 499 531
ENDBRANCH 484 485
ENDBRANCH 483 484
ENDBRANCH 480 483
ENDBRANCH 479 480
ENDBRANCH 465 479
BRANCH 467 1373
ATOM   1373  O2'   C A  20       0.763  13.345  37.437  1.00  0.00    -0.388 OA
ATOM   1374 'HO2   C A  20       0.678  12.862  36.615  1.00  0.00     0.210 HD
ENDBRANCH 467 1373
ENDBRANCH 462 463
ENDBRANCH 459 462
ENDBRANCH 458 459
ENDBRANCH 446 458
ENDBRANCH 441 442
ENDBRANCH 425 441
ENDBRANCH 299 300
ENDBRANCH 298 299
ENDBRANCH 295 298
ENDBRANCH 294 295
ENDBRANCH 291 294
ENDBRANCH 272 273
ENDBRANCH 271 272
ENDBRANCH 268 271
ENDBRANCH 267 268
ENDBRANCH 254 267
ENDBRANCH 249 250
ENDBRANCH 248 249
ENDBRANCH 245 248
ENDBRANCH 244 245
ENDBRANCH 227 244
ENDBRANCH 222 223
ENDBRANCH 206 222
ENDBRANCH 195 196
ENDBRANCH 194 195
ENDBRANCH 191 194
ENDBRANCH 190 191
ENDBRANCH 179 190
ENDBRANCH 173 174
ENDBRANCH 172 173
ENDBRANCH 169 172
ENDBRANCH 168 169
ENDBRANCH 167 168
TORSDOF 435
ENDMDL
MODEL 5
REMARK VINA RESULT:      -1.6      6.095     14.787
REMARK WARNING: 32 MAX_TORS EXCEEDED!!!
REMARK  104 active torsions:
REMARK  status: ('A' for Active; 'I' for Inactive)
REMARK       I    between atoms: O5'_2  and  C5'_3 
REMARK       I    between atoms: C5'_3  and  C4'_4 
REMARK       I    between atoms: C1'_6  and  N9_7 
REMARK       I    between atoms: C2_10  and  N2_11 
REMARK       I    between atoms: C2'_21  and  O2'_22 
REMARK       I    between atoms: C3'_24  and  O3'_25 
REMARK       I    between atoms: O3'_25  and  P_26 
REMARK       I    between atoms: P_26  and  O5'_29 
REMARK       I    between atoms: O5'_29  and  C5'_30 
REMARK       I    between atoms: C5'_30  and  C4'_31 
REMARK       I    between atoms: C1'_33  and  N9_34 
REMARK       I    between atoms: C6_39  and  N6_40 
REMARK       I    between atoms: C2'_46  and  O2'_47 
REMARK       I    between atoms: C3'_49  and  O3'_50 
REMARK       I    between atoms: O3'_50  and  P_51 
REMARK       I    between atoms: P_51  and  O5'_54 
REMARK       I    between atoms: O5'_54  and  C5'_55 
REMARK       I    between atoms: C5'_55  and  C4'_56 
REMARK       I    between atoms: C1'_58  and  N1_59 
REMARK       I    between atoms: C4_64  and  N4_65 
REMARK       I    between atoms: C2'_69  and  O2'_70 
REMARK       I    between atoms: C3'_72  and  O3'_73 
REMARK       I    between atoms: O3'_73  and  P_74 
REMARK       I    between atoms: P_74  and  O5'_77 
REMARK       I    between atoms: O5'_77  and  C5'_78 
REMARK       I    between atoms: C5'_78  and  C4'_79 
REMARK       I    between atoms: C1'_81  and  N1_82 
REMARK       I    between atoms: C4_87  and  N4_88 
REMARK       I    between atoms: C2'_92  and  O2'_93 
REMARK       I    between atoms: C3'_95  and  O3'_96 
REMARK       I    between atoms: O3'_96  and  P_97 
REMARK       I    between atoms: P_97  and  O5'_100 
REMARK       I    between atoms: O5'_100  and  C5'_101 
REMARK       I    between atoms: C5'_101  and  C4'_102 
REMARK       I    between atoms: C1'_104  and  N1_105 
REMARK       I    between atoms: C2'_114  and  O2'_115 
REMARK       I    between atoms: C3'_117  and  O3'_118 
REMARK       I    between atoms: O3'_118  and  P_119 
REMARK       I    between atoms: P_119  and  O5'_122 
REMARK       I    between atoms: O5'_122  and  C5'_123 
REMARK       I    between atoms: C5'_123  and  C4'_124 
REMARK       I    between atoms: C1'_126  and  N1_127 
REMARK       I    between atoms: C4_132  and  N4_133 
REMARK       I    between atoms: C2'_137  and  O2'_138 
REMARK       I    between atoms: C3'_140  and  O3'_141 
REMARK       I    between atoms: O3'_141  and  P_142 
REMARK       I    between atoms: P_142  and  O5'_145 
REMARK       I    between atoms: O5'_145  and  C5'_146 
REMARK       I    between atoms: C5'_146  and  C4'_147 
REMARK       I    between atoms: C1'_149  and  N9_150 
REMARK       I    between atoms: C2_153  and  N2_154 
REMARK       I    between atoms: C2'_164  and  O2'_165 
REMARK    1  A    between atoms: C3'_167  and  O3'_168 
REMARK    2  A    between atoms: O3'_168  and  P_169 
REMARK    3  A    between atoms: P_169  and  O5'_172 
REMARK    4  A    between atoms: O5'_172  and  C5'_173 
REMARK    5  A    between atoms: C5'_173  and  C4'_174 
REMARK       I    between atoms: C1'_176  and  N1_177 
REMARK    6  A    between atoms: C2'_186  and  O2'_187 
REMARK    7  A    between atoms: C3'_189  and  O3'_190 
REMARK    8  A    between atoms: O3'_190  and  P_191 
REMARK    9  A    between atoms: P_191  and  O5'_194 
REMARK   10  A    between atoms: O5'_194  and  C5'_195 
REMARK   11  A    between atoms: C5'_195  and  C4'_196 
REMARK       I    between atoms: C1'_198  and  N9_199 
REMARK       I    between atoms: C2_202  and  N2_203 
REMARK   12  A    between atoms: C2'_213  and  O2'_214 
REMARK       I    between atoms: C3'_216  and  O3'_217 
REMARK       I    between atoms: O3'_217  and  P_218 
REMARK       I    between atoms: P_218  and  O5'_221 
REMARK   13  A    between atoms: O5'_221  and  C5'_222 
REMARK   14  A    between atoms: C5'_222  and  C4'_223 
REMARK   15  A    between atoms: C1'_225  and  N9_226 
REMARK       I    between atoms: C2_229  and  N2_230 
REMARK   16  A    between atoms: C2'_240  and  O2'_241 
REMARK   17  A    between atoms: C3'_243  and  O3'_244 
REMARK   18  A    between atoms: O3'_244  and  P_245 
REMARK   19  A    between atoms: P_245  and  O5'_248 
REMARK   20  A    between atoms: O5'_248  and  C5'_249 
REMARK   21  A    between atoms: C5'_249  and  C4'_250 
REMARK   22  A    between atoms: C1'_252  and  N1_253 
REMARK       I    between atoms: C4_258  and  N4_259 
REMARK   23  A    between atoms: C2'_263  and  O2'_264 
REMARK   24  A    between atoms: C3'_266  and  O3'_267 
REMARK   25  A    between atoms: O3'_267  and  P_268 
REMARK   26  A    between atoms: P_268  and  O5'_271 
REMARK   27  A    between atoms: O5'_271  and  C5'_272 
REMARK   28  A    between atoms: C5'_272  and  C4'_273 
REMARK       I    between atoms: C1'_275  and  N9_276 
REMARK       I    between atoms: C2_279  and  N2_280 
REMARK   29  A    between atoms: C2'_290  and  O2'_291 
REMARK   30  A    between atoms: C3'_293  and  O3'_294 
REMARK   31  A    between atoms: O3'_294  and  P_295 
REMARK   32  A    between atoms: P_295  and  O5'_298 
REMARK   33  A    between atoms: O5'_298  and  C5'_299 
REMARK   34  A    between atoms: C5'_299  and  C4'_300 
REMARK       I    between atoms: C1'_302  and  N1_303 
REMARK       I    between atoms: C2'_312  and  O2'_313 
REMARK       I    between atoms: C3'_315  and  O3'_316 
REMARK       I    between atoms: O3'_316  and  P_317 
REMARK       I    between atoms: P_317  and  O5'_320 
REMARK       I    between atoms: O5'_320  and  C5'_321 
REMARK       I    between atoms: C5'_321  and  C4'_322 
REMARK       I    between atoms: C1'_324  and  N1_325 
REMARK       I    between atoms: C4_330  and  N4_331 
REMARK       I    between atoms: C2'_335  and  O2'_336 
REMARK       I    between atoms: C3'_338  and  O3'_339 
REMARK       I    between atoms: O3'_339  and  P_340 
REMARK       I    between atoms: P_340  and  O5'_343 
REMARK       I    between atoms: O5'_343  and  C5'_344 
REMARK       I    between atoms: C5'_344  and  C4'_345 
REMARK       I    between atoms: C1'_347  and  N1_348 
REMARK       I    between atoms: C2'_357  and  O2'_358 
REMARK       I    between atoms: C3'_360  and  O3'_361 
REMARK       I    between atoms: O3'_361  and  P_362 
REMARK       I    between atoms: P_362  and  O5'_365 
REMARK       I    between atoms: O5'_365  and  C5'_366 
REMARK       I    between atoms: C5'_366  and  C4'_367 
REMARK       I    between atoms: C1'_369  and  N9_370 
REMARK       I    between atoms: C2_373  and  N2_374 
REMARK       I    between atoms: C2'_384  and  O2'_385 
REMARK       I    between atoms: C3'_387  and  O3'_388 
REMARK       I    between atoms: O3'_388  and  P_389 
REMARK       I    between atoms: P_389  and  O5'_392 
REMARK       I    between atoms: O5'_392  and  C5'_393 
REMARK       I    between atoms: C5'_393  and  C4'_394 
REMARK       I    between atoms: C1'_396  and  N9_397 
REMARK       I    between atoms: C6_402  and  N6_403 
REMARK       I    between atoms: C2'_409  and  O2'_410 
REMARK       I    between atoms: C3'_412  and  O3'_413 
REMARK       I    between atoms: O3'_413  and  P_414 
REMARK       I    between atoms: P_414  and  O5'_417 
REMARK       I    between atoms: O5'_417  and  C5'_418 
REMARK       I    between atoms: C5'_418  and  C4'_419 
REMARK       I    between atoms: C1'_421  and  N1_422 
REMARK       I    between atoms: C4_427  and  N4_428 
REMARK       I    between atoms: C2'_432  and  O2'_433 
REMARK       I    between atoms: C3'_435  and  O3'_436 
REMARK       I    between atoms: O3'_436  and  P_437 
REMARK       I    between atoms: P_437  and  O5'_440 
REMARK   35  A    between atoms: O5'_440  and  C5'_441 
REMARK   36  A    between atoms: C5'_441  and  C4'_442 
REMARK   37  A    between atoms: C1'_444  and  N1_445 
REMARK   38  A    between atoms: C2'_454  and  O2'_455 
REMARK   39  A    between atoms: C3'_457  and  O3'_458 
REMARK   40  A    between atoms: O3'_458  and  P_459 
REMARK   41  A    between atoms: P_459  and  O5'_462 
REMARK   42  A    between atoms: O5'_462  and  C5'_463 
REMARK       I    between atoms: C5'_463  and  C4'_464 
REMARK       I    between atoms: C1'_466  and  N1_467 
REMARK       I    between atoms: C4_472  and  N4_473 
REMARK   43  A    between atoms: C2'_477  and  O2'_478 
REMARK   44  A    between atoms: C3'_480  and  O3'_481 
REMARK   45  A    between atoms: O3'_481  and  P_482 
REMARK   46  A    between atoms: P_482  and  O5'_485 
REMARK   47  A    between atoms: O5'_485  and  C5'_486 
REMARK   48  A    between atoms: C5'_486  and  C4'_487 
REMARK       I    between atoms: C1'_489  and  N1_490 
REMARK       I    between atoms: C4_495  and  N4_496 
REMARK       I    between atoms: C2'_500  and  O2'_501 
REMARK       I    between atoms: C3'_503  and  O3'_504 
REMARK       I    between atoms: O3'_504  and  P_505 
REMARK       I    between atoms: P_505  and  O5'_508 
REMARK       I    between atoms: O5'_508  and  C5'_509 
REMARK       I    between atoms: C5'_509  and  C4'_510 
REMARK       I    between atoms: C1'_512  and  N9_513 
REMARK       I    between atoms: C6_518  and  N6_519 
REMARK       I    between atoms: C2'_525  and  O2'_526 
REMARK       I    between atoms: C3'_528  and  O3'_529 
REMARK       I    between atoms: O3'_529  and  P_530 
REMARK   49  A    between atoms: P_530  and  O5'_533 
REMARK   50  A    between atoms: O5'_533  and  C5'_534 
REMARK   51  A    between atoms: C5'_534  and  C4'_535 
REMARK       I    between atoms: C1'_537  and  N9_538 
REMARK       I    between atoms: C2_541  and  N2_542 
REMARK   52  A    between atoms: C2'_552  and  O2'_553 
REMARK   53  A    between atoms: C3'_555  and  O3'_556 
REMARK   54  A    between atoms: O3'_556  and  P_557 
REMARK   55  A    between atoms: P_557  and  O5'_560 
REMARK   56  A    between atoms: O5'_560  and  C5'_561 
REMARK   57  A    between atoms: C5'_561  and  C4'_562 
REMARK   58  A    between atoms: C1'_564  and  N9_565 
REMARK       I    between atoms: C6_570  and  N6_571 
REMARK   59  A    between atoms: C2'_577  and  O2'_578 
REMARK       I    between atoms: C3'_580  and  O3'_581 
REMARK       I    between atoms: O3'_581  and  P_582 
REMARK       I    between atoms: P_582  and  O5'_585 
REMARK       I    between atoms: O5'_585  and  C5'_586 
REMARK       I    between atoms: C5'_586  and  C4'_587 
REMARK       I    between atoms: C1'_589  and  N1_590 
REMARK       I    between atoms: C2'_599  and  O2'_600 
REMARK       I    between atoms: C3'_602  and  O3'_603 
REMARK       I    between atoms: O3'_603  and  P_604 
REMARK       I    between atoms: P_604  and  O5'_607 
REMARK       I    between atoms: O5'_607  and  C5'_608 
REMARK       I    between atoms: C5'_608  and  C4'_609 
REMARK       I    between atoms: C1'_611  and  N1_612 
REMARK       I    between atoms: C4_617  and  N4_618 
REMARK       I    between atoms: C2'_622  and  O2'_623 
REMARK       I    between atoms: C3'_625  and  O3'_626 
REMARK       I    between atoms: O3'_626  and  P_627 
REMARK       I    between atoms: P_627  and  O5'_630 
REMARK       I    between atoms: O5'_630  and  C5'_631 
REMARK       I    between atoms: C5'_631  and  C4'_632 
REMARK       I    between atoms: C1'_634  and  N9_635 
REMARK       I    between atoms: C6_640  and  N6_641 
REMARK       I    between atoms: C2'_647  and  O2'_648 
REMARK   60  A    between atoms: C3'_650  and  O3'_651 
REMARK   61  A    between atoms: O3'_651  and  P_652 
REMARK   62  A    between atoms: P_652  and  O5'_655 
REMARK   63  A    between atoms: O5'_655  and  C5'_656 
REMARK   64  A    between atoms: C5'_656  and  C4'_657 
REMARK       I    between atoms: C1'_659  and  N9_660 
REMARK       I    between atoms: C2_663  and  N2_664 
REMARK       I    between atoms: C2'_674  and  O2'_675 
REMARK   65  A    between atoms: C3'_677  and  O3'_678 
REMARK   66  A    between atoms: O3'_678  and  P_679 
REMARK   67  A    between atoms: P_679  and  O5'_682 
REMARK   68  A    between atoms: O5'_682  and  C5'_683 
REMARK   69  A    between atoms: C5'_683  and  C4'_684 
REMARK       I    between atoms: C1'_686  and  N9_687 
REMARK       I    between atoms: C6_692  and  N6_693 
REMARK       I    between atoms: C2'_699  and  O2'_700 
REMARK       I    between atoms: C3'_702  and  O3'_703 
REMARK       I    between atoms: O3'_703  and  P_704 
REMARK       I    between atoms: P_704  and  O5'_707 
REMARK       I    between atoms: O5'_707  and  C5'_708 
REMARK       I    between atoms: C5'_708  and  C4'_709 
REMARK       I    between atoms: C1'_711  and  N9_712 
REMARK       I    between atoms: C6_717  and  N6_718 
REMARK       I    between atoms: C2'_724  and  O2'_725 
REMARK       I    between atoms: C3'_727  and  O3'_728 
REMARK       I    between atoms: O3'_728  and  P_729 
REMARK       I    between atoms: P_729  and  O5'_732 
REMARK       I    between atoms: O5'_732  and  C5'_733 
REMARK       I    between atoms: C5'_733  and  C4'_734 
REMARK       I    between atoms: C1'_736  and  N9_737 
REMARK       I    between atoms: C2_740  and  N2_741 
REMARK       I    between atoms: C2'_751  and  O2'_752 
REMARK   70  A    between atoms: C3'_754  and  O3'_755 
REMARK   71  A    between atoms: O3'_755  and  P_756 
REMARK   72  A    between atoms: P_756  and  O5'_759 
REMARK   73  A    between atoms: O5'_759  and  C5'_760 
REMARK   74  A    between atoms: C5'_760  and  C4'_761 
REMARK       I    between atoms: C1'_763  and  N9_764 
REMARK       I    between atoms: C2_767  and  N2_768 
REMARK       I    between atoms: C2'_778  and  O2'_779 
REMARK       I    between atoms: C3'_781  and  O3'_782 
REMARK       I    between atoms: O3'_782  and  P_783 
REMARK       I    between atoms: P_783  and  O5'_786 
REMARK       I    between atoms: O5'_786  and  C5'_787 
REMARK       I    between atoms: C5'_787  and  C4'_788 
REMARK       I    between atoms: C1'_790  and  N1_791 
REMARK   75  A    between atoms: C4_796  and  N4_797 
REMARK       I    between atoms: C2'_801  and  O2'_802 
REMARK       I    between atoms: C3'_804  and  O3'_805 
REMARK       I    between atoms: O3'_805  and  P_806 
REMARK       I    between atoms: P_806  and  O5'_809 
REMARK       I    between atoms: O5'_809  and  C5'_810 
REMARK       I    between atoms: C5'_810  and  C4'_811 
REMARK       I    between atoms: C1'_813  and  N1_814 
REMARK       I    between atoms: C2'_823  and  O2'_824 
REMARK       I    between atoms: C3'_826  and  O3'_827 
REMARK       I    between atoms: O3'_827  and  P_828 
REMARK       I    between atoms: P_828  and  O5'_831 
REMARK       I    between atoms: O5'_831  and  C5'_832 
REMARK       I    between atoms: C5'_832  and  C4'_833 
REMARK       I    between atoms: C1'_835  and  N9_836 
REMARK       I    between atoms: C2_839  and  N2_840 
REMARK       I    between atoms: C2'_850  and  O2'_851 
REMARK       I    between atoms: C3'_853  and  O3'_854 
REMARK       I    between atoms: O3'_854  and  P_855 
REMARK       I    between atoms: P_855  and  O5'_858 
REMARK       I    between atoms: O5'_858  and  C5'_859 
REMARK       I    between atoms: C5'_859  and  C4'_860 
REMARK       I    between atoms: C1'_862  and  N1_863 
REMARK       I    between atoms: C4_868  and  N4_869 
REMARK       I    between atoms: C2'_873  and  O2'_874 
REMARK       I    between atoms: C3'_876  and  O3'_877 
REMARK       I    between atoms: O3'_877  and  P_878 
REMARK       I    between atoms: P_878  and  O5'_881 
REMARK       I    between atoms: O5'_881  and  C5'_882 
REMARK       I    between atoms: C5'_882  and  C4'_883 
REMARK       I    between atoms: C1'_885  and  N9_886 
REMARK       I    between atoms: C2_889  and  N2_890 
REMARK       I    between atoms: C2'_900  and  O2'_901 
REMARK       I    between atoms: C3'_903  and  O3'_904 
REMARK       I    between atoms: O3'_904  and  P_905 
REMARK       I    between atoms: P_905  and  O5'_908 
REMARK       I    between atoms: O5'_908  and  C5'_909 
REMARK       I    between atoms: C5'_909  and  C4'_910 
REMARK       I    between atoms: C1'_912  and  N1_913 
REMARK       I    between atoms: C2'_922  and  O2'_923 
REMARK       I    between atoms: C3'_925  and  O3'_926 
REMARK       I    between atoms: O3'_926  and  P_927 
REMARK       I    between atoms: P_927  and  O5'_930 
REMARK       I    between atoms: O5'_930  and  C5'_931 
REMARK       I    between atoms: C5'_931  and  C4'_932 
REMARK       I    between atoms: C1'_934  and  N9_935 
REMARK       I    between atoms: C2_938  and  N2_939 
REMARK   76  A    between atoms: C2'_949  and  O2'_950 
REMARK   77  A    between atoms: C3'_952  and  O3'_953 
REMARK   78  A    between atoms: O3'_953  and  P_954 
REMARK   79  A    between atoms: P_954  and  O5'_957 
REMARK   80  A    between atoms: O5'_957  and  C5'_958 
REMARK   81  A    between atoms: C5'_958  and  C4'_959 
REMARK       I    between atoms: C1'_961  and  N9_962 
REMARK       I    between atoms: C2_965  and  N2_966 
REMARK       I    between atoms: C2'_976  and  O2'_977 
REMARK   82  A    between atoms: C3'_979  and  O3'_980 
REMARK   83  A    between atoms: O3'_980  and  P_981 
REMARK   84  A    between atoms: P_981  and  O5'_984 
REMARK   85  A    between atoms: O5'_984  and  C5'_985 
REMARK   86  A    between atoms: C5'_985  and  C4'_986 
REMARK       I    between atoms: C1'_988  and  N9_989 
REMARK       I    between atoms: C6_994  and  N6_995 
REMARK       I    between atoms: C2'_1001  and  O2'_1002 
REMARK       I    between atoms: C3'_1004  and  O3'_1005 
REMARK       I    between atoms: O3'_1005  and  P_1006 
REMARK       I    between atoms: P_1006  and  O5'_1009 
REMARK       I    between atoms: O5'_1009  and  C5'_1010 
REMARK       I    between atoms: C5'_1010  and  C4'_1011 
REMARK       I    between atoms: C1'_1013  and  N9_1014 
REMARK       I    between atoms: C6_1019  and  N6_1020 
REMARK       I    between atoms: C2'_1026  and  O2'_1027 
REMARK       I    between atoms: C3'_1029  and  O3'_1030 
REMARK       I    between atoms: O3'_1030  and  P_1031 
REMARK       I    between atoms: P_1031  and  O5'_1034 
REMARK       I    between atoms: O5'_1034  and  C5'_1035 
REMARK       I    between atoms: C5'_1035  and  C4'_1036 
REMARK       I    between atoms: C1'_1038  and  N1_1039 
REMARK       I    between atoms: C2'_1048  and  O2'_1049 
REMARK       I    between atoms: C3'_1051  and  O3'_1052 
REMARK       I    between atoms: O3'_1052  and  P_1053 
REMARK       I    between atoms: P_1053  and  O5'_1056 
REMARK       I    between atoms: O5'_1056  and  C5'_1057 
REMARK       I    between atoms: C5'_1057  and  C4'_1058 
REMARK       I    between atoms: C1'_1060  and  N1_1061 
REMARK       I    between atoms: C4_1066  and  N4_1067 
REMARK       I    between atoms: C2'_1071  and  O2'_1072 
REMARK       I    between atoms: C3'_1074  and  O3'_1075 
REMARK       I    between atoms: O3'_1075  and  P_1076 
REMARK       I    between atoms: P_1076  and  O5'_1079 
REMARK       I    between atoms: O5'_1079  and  C5'_1080 
REMARK       I    between atoms: C5'_1080  and  C4'_1081 
REMARK       I    between atoms: C1'_1083  and  N9_1084 
REMARK       I    between atoms: C6_1089  and  N6_1090 
REMARK       I    between atoms: C2'_1096  and  O2'_1097 
REMARK       I    between atoms: C3'_1099  and  O3'_1100 
REMARK       I    between atoms: O3'_1100  and  P_1101 
REMARK       I    between atoms: P_1101  and  O5'_1104 
REMARK       I    between atoms: O5'_1104  and  C5'_1105 
REMARK       I    between atoms: C5'_1105  and  C4'_1106 
REMARK       I    between atoms: C1'_1108  and  N1_1109 
REMARK       I    between atoms: C4_1114  and  N4_1115 
REMARK       I    between atoms: C2'_1119  and  O2'_1120 
REMARK       I    between atoms: C3'_1122  and  O3'_1123 
REMARK       I    between atoms: O3'_1123  and  P_1124 
REMARK       I    between atoms: P_1124  and  O5'_1127 
REMARK       I    between atoms: O5'_1127  and  C5'_1128 
REMARK       I    between atoms: C5'_1128  and  C4'_1129 
REMARK       I    between atoms: C1'_1131  and  N9_1132 
REMARK       I    between atoms: C2_1135  and  N2_1136 
REMARK       I    between atoms: C2'_1146  and  O2'_1147 
REMARK       I    between atoms: C3'_1149  and  O3'_1150 
REMARK   87  A    between atoms: O3'_1150  and  P_1151 
REMARK   88  A    between atoms: P_1151  and  O5'_1154 
REMARK   89  A    between atoms: O5'_1154  and  C5'_1155 
REMARK   90  A    between atoms: C5'_1155  and  C4'_1156 
REMARK       I    between atoms: C1'_1158  and  N1_1159 
REMARK       I    between atoms: C2'_1168  and  O2'_1169 
REMARK   91  A    between atoms: C3'_1171  and  O3'_1172 
REMARK   92  A    between atoms: O3'_1172  and  P_1173 
REMARK   93  A    between atoms: P_1173  and  O5'_1176 
REMARK   94  A    between atoms: O5'_1176  and  C5'_1177 
REMARK   95  A    between atoms: C5'_1177  and  C4'_1178 
REMARK       I    between atoms: C1'_1180  and  N1_1181 
REMARK       I    between atoms: C4_1186  and  N4_1187 
REMARK       I    between atoms: C2'_1191  and  O2'_1192 
REMARK   96  A    between atoms: C3'_1194  and  O3'_1195 
REMARK       I    between atoms: O3'_1195  and  P_1196 
REMARK       I    between atoms: P_1196  and  O5'_1199 
REMARK       I    between atoms: O5'_1199  and  C5'_1200 
REMARK       I    between atoms: C5'_1200  and  C4'_1201 
REMARK       I    between atoms: C1'_1203  and  N9_1204 
REMARK       I    between atoms: C2_1207  and  N2_1208 
REMARK       I    between atoms: C2'_1218  and  O2'_1219 
REMARK       I    between atoms: C3'_1221  and  O3'_1222 
REMARK       I    between atoms: O3'_1222  and  P_1223 
REMARK       I    between atoms: P_1223  and  O5'_1226 
REMARK       I    between atoms: O5'_1226  and  C5'_1227 
REMARK       I    between atoms: C5'_1227  and  C4'_1228 
REMARK       I    between atoms: C1'_1230  and  N9_1231 
REMARK       I    between atoms: C2_1234  and  N2_1235 
REMARK       I    between atoms: C2'_1245  and  O2'_1246 
REMARK       I    between atoms: C3'_1248  and  O3'_1249 
REMARK       I    between atoms: O3'_1249  and  P_1250 
REMARK       I    between atoms: P_1250  and  O5'_1253 
REMARK       I    between atoms: O5'_1253  and  C5'_1254 
REMARK       I    between atoms: C5'_1254  and  C4'_1255 
REMARK       I    between atoms: C1'_1257  and  N9_1258 
REMARK       I    between atoms: C2_1261  and  N2_1262 
REMARK       I    between atoms: C2'_1272  and  O2'_1273 
REMARK       I    between atoms: C3'_1275  and  O3'_1276 
REMARK       I    between atoms: O3'_1276  and  P_1277 
REMARK       I    between atoms: P_1277  and  O5'_1280 
REMARK       I    between atoms: O5'_1280  and  C5'_1281 
REMARK       I    between atoms: C5'_1281  and  C4'_1282 
REMARK       I    between atoms: C1'_1284  and  N9_1285 
REMARK       I    between atoms: C2_1288  and  N2_1289 
REMARK       I    between atoms: C2'_1299  and  O2'_1300 
REMARK       I    between atoms: C3'_1302  and  O3'_1303 
REMARK       I    between atoms: O3'_1303  and  P_1304 
REMARK       I    between atoms: P_1304  and  O5'_1307 
REMARK       I    between atoms: O5'_1307  and  C5'_1308 
REMARK       I    between atoms: C5'_1308  and  C4'_1309 
REMARK       I    between atoms: C1'_1311  and  N1_1312 
REMARK       I    between atoms: C2'_1321  and  O2'_1322 
REMARK   97  A    between atoms: C3'_1324  and  O3'_1325 
REMARK   98  A    between atoms: O3'_1325  and  P_1326 
REMARK   99  A    between atoms: P_1326  and  O5'_1329 
REMARK  100  A    between atoms: O5'_1329  and  C5'_1330 
REMARK  101  A    between atoms: C5'_1330  and  C4'_1331 
REMARK       I    between atoms: C1'_1333  and  N1_1334 
REMARK       I    between atoms: C4_1339  and  N4_1340 
REMARK  102  A    between atoms: C2'_1344  and  O2'_1345 
REMARK  103  A    between atoms: C3'_1347  and  O3'_1348 
REMARK  104  A    between atoms: O3'_1348  and  P_1349 
REMARK       I    between atoms: P_1349  and  O5'_1352 
REMARK       I    between atoms: O5'_1352  and  C5'_1353 
REMARK       I    between atoms: C5'_1353  and  C4'_1354 
REMARK       I    between atoms: C1'_1356  and  N9_1357 
REMARK       I    between atoms: C6_1362  and  N6_1363 
REMARK       I    between atoms: C2'_1369  and  O2'_1370 
REMARK       I    between atoms: C3'_1372  and  O3'_1373 
ROOT
ATOM      1 'HO5   G A   1     -43.538  11.571  21.392  1.00  0.00     0.209 HD
ATOM      2  O5'   G A   1     -42.853  11.133  20.880  1.00  0.00    -0.398 OA
ATOM      3  C5'   G A   1     -42.135  12.156  20.184  1.00  0.00     0.198 C 
ATOM      4  C4'   G A   1     -42.165  13.459  20.952  1.00  0.00     0.180 C 
ATOM      5  O4'   G A   1     -43.168  13.366  22.005  1.00  0.00    -0.353 OA
ATOM      6  C1'   G A   1     -42.644  13.896  23.211  1.00  0.00     0.262 C 
ATOM      7  N9    G A   1     -42.411  12.793  24.138  1.00  0.00    -0.293 N 
ATOM      8  C4    G A   1     -42.090  12.901  25.469  1.00  0.00     0.187 A 
ATOM      9  N3    G A   1     -41.939  14.052  26.157  1.00  0.00    -0.044 NA
ATOM     10  C2    G A   1     -41.630  13.832  27.422  1.00  0.00     0.703 A 
ATOM     11  N2    G A   1     -41.446  14.864  28.248  1.00  0.00    -0.233 N 
ATOM     12  H21   G A   1     -41.545  15.805  27.897  1.00  0.00     0.174 HD
ATOM     13  H22   G A   1     -41.213  14.704  29.219  1.00  0.00     0.174 HD
ATOM     14  N1    G A   1     -41.479  12.584  27.971  1.00  0.00    -0.153 N 
ATOM     15  H1    G A   1     -41.242  12.529  28.949  1.00  0.00     0.187 HD
ATOM     16  C6    G A   1     -41.625  11.385  27.282  1.00  0.00     0.292 A 
ATOM     17  O6    G A   1     -41.462  10.312  27.875  1.00  0.00    -0.265 OA
ATOM     18  C5    G A   1     -41.961  11.604  25.921  1.00  0.00     0.173 A 
ATOM     19  N7    G A   1     -42.198  10.699  24.896  1.00  0.00    -0.234 NA
ATOM     20  C8    G A   1     -42.460  11.449  23.861  1.00  0.00     0.214 A 
ATOM     21  C2'   G A   1     -41.376  14.659  22.841  1.00  0.00     0.199 C 
ATOM     22  O2'   G A   1     -41.733  15.963  22.422  1.00  0.00    -0.388 OA
ATOM     23 'HO2   G A   1     -40.952  16.352  22.029  1.00  0.00     0.210 HD
ATOM     24  C3'   G A   1     -40.873  13.818  21.676  1.00  0.00     0.198 C 
ATOM     25  O3'   G A   1     -39.975  14.534  20.831  1.00  0.00    -0.279 OA
ATOM     26  P     A A   2     -38.390  14.298  20.969  1.00  0.00     0.408 P 
ATOM     27  OP1   A A   2     -37.736  15.068  19.880  1.00  0.00    -0.624 OA
ATOM     28  OP2   A A   2     -38.140  12.839  21.086  1.00  0.00    -0.624 OA
ATOM     29  O5'   A A   2     -38.017  14.982  22.359  1.00  0.00    -0.287 OA
ATOM     30  C5'   A A   2     -38.152  16.389  22.545  1.00  0.00     0.216 C 
ATOM     31  C4'   A A   2     -37.728  16.775  23.943  1.00  0.00     0.180 C 
ATOM     32  O4'   A A   2     -38.695  16.251  24.894  1.00  0.00    -0.353 OA
ATOM     33  C1'   A A   2     -38.024  15.809  26.061  1.00  0.00     0.262 C 
ATOM     34  N9    A A   2     -38.221  14.365  26.189  1.00  0.00    -0.294 N 
ATOM     35  C4    A A   2     -38.049  13.619  27.330  1.00  0.00     0.167 A 
ATOM     36  N3    A A   2     -37.671  14.060  28.542  1.00  0.00    -0.222 NA
ATOM     37  C2    A A   2     -37.608  13.053  29.410  1.00  0.00     0.237 A 
ATOM     38  N1    A A   2     -37.859  11.751  29.216  1.00  0.00    -0.222 NA
ATOM     39  C6    A A   2     -38.236  11.342  27.986  1.00  0.00     0.155 A 
ATOM     40  N6    A A   2     -38.487  10.046  27.795  1.00  0.00    -0.382 N 
ATOM     41  H61   A A   2     -38.771   9.720  26.883  1.00  0.00     0.157 HD
ATOM     42  H62   A A   2     -38.394   9.392  28.560  1.00  0.00     0.157 HD
ATOM     43  C5    A A   2     -38.343  12.315  26.977  1.00  0.00     0.149 A 
ATOM     44  N7    A A   2     -38.696  12.238  25.637  1.00  0.00    -0.236 NA
ATOM     45  C8    A A   2     -38.609  13.477  25.217  1.00  0.00     0.214 A 
ATOM     46  C2'   A A   2     -36.557  16.212  25.923  1.00  0.00     0.199 C 
ATOM     47  O2'   A A   2     -36.392  17.516  26.451  1.00  0.00    -0.388 OA
ATOM     48 'HO2   A A   2     -35.710  17.940  25.929  1.00  0.00     0.210 HD
ATOM     49  C3'   A A   2     -36.396  16.204  24.409  1.00  0.00     0.198 C 
ATOM     50  O3'   A A   2     -35.297  16.999  23.971  1.00  0.00    -0.279 OA
ATOM     51  P     C A   3     -33.873  16.307  23.685  1.00  0.00     0.408 P 
ATOM     52  OP1   C A   3     -33.004  17.334  23.057  1.00  0.00    -0.624 OA
ATOM     53  OP2   C A   3     -34.104  15.016  22.988  1.00  0.00    -0.624 OA
ATOM     54  O5'   C A   3     -33.298  15.992  25.139  1.00  0.00    -0.287 OA
ATOM     55  C5'   C A   3     -32.901  17.045  26.015  1.00  0.00     0.216 C 
ATOM     56  C4'   C A   3     -32.692  16.513  27.414  1.00  0.00     0.180 C 
ATOM     57  O4'   C A   3     -33.895  15.823  27.854  1.00  0.00    -0.353 OA
ATOM     58  C1'   C A   3     -33.538  14.742  28.701  1.00  0.00     0.264 C 
ATOM     59  N1    C A   3     -34.028  13.489  28.102  1.00  0.00    -0.278 N 
ATOM     60  C6    C A   3     -34.426  13.442  26.794  1.00  0.00     0.102 A 
ATOM     61  C2    C A   3     -34.075  12.338  28.894  1.00  0.00     0.352 A 
ATOM     62  O2    C A   3     -33.711  12.406  30.076  1.00  0.00    -0.244 OA
ATOM     63  N3    C A   3     -34.515  11.181  28.354  1.00  0.00    -0.177 NA
ATOM     64  C4    C A   3     -34.900  11.145  27.078  1.00  0.00     0.128 A 
ATOM     65  N4    C A   3     -35.324   9.980  26.589  1.00  0.00    -0.384 N 
ATOM     66  H41   C A   3     -35.624   9.909  25.628  1.00  0.00     0.157 HD
ATOM     67  H42   C A   3     -35.341   9.165  27.186  1.00  0.00     0.157 HD
ATOM     68  C5    C A   3     -34.868  12.303  26.246  1.00  0.00     0.067 A 
ATOM     69  C2'   C A   3     -32.018  14.777  28.867  1.00  0.00     0.199 C 
ATOM     70  O2'   C A   3     -31.704  15.574  29.994  1.00  0.00    -0.388 OA
ATOM     71 'HO2   C A   3     -31.145  16.289  29.685  1.00  0.00     0.210 HD
ATOM     72  C3'   C A   3     -31.603  15.461  27.572  1.00  0.00     0.198 C 
ATOM     73  O3'   C A   3     -30.301  16.036  27.653  1.00  0.00    -0.279 OA
ATOM     74  P     C A   4     -29.009  15.143  27.296  1.00  0.00     0.408 P 
ATOM     75  OP1   C A   4     -27.860  16.063  27.117  1.00  0.00    -0.624 OA
ATOM     76  OP2   C A   4     -29.376  14.209  26.200  1.00  0.00    -0.624 OA
ATOM     77  O5'   C A   4     -28.757  14.278  28.612  1.00  0.00    -0.287 OA
ATOM     78  C5'   C A   4     -28.752  14.886  29.904  1.00  0.00     0.216 C 
ATOM     79  C4'   C A   4     -28.445  13.856  30.968  1.00  0.00     0.180 C 
ATOM     80  O4'   C A   4     -29.667  13.129  31.282  1.00  0.00    -0.353 OA
ATOM     81  C1'   C A   4     -29.385  11.746  31.399  1.00  0.00     0.264 C 
ATOM     82  N1    C A   4     -30.001  11.045  30.259  1.00  0.00    -0.278 N 
ATOM     83  C6    C A   4     -30.189  11.684  29.065  1.00  0.00     0.102 A 
ATOM     84  C2    C A   4     -30.387   9.710  30.412  1.00  0.00     0.352 A 
ATOM     85  O2    C A   4     -30.209   9.154  31.504  1.00  0.00    -0.244 OA
ATOM     86  N3    C A   4     -30.946   9.060  29.366  1.00  0.00    -0.177 NA
ATOM     87  C4    C A   4     -31.125   9.693  28.206  1.00  0.00     0.128 A 
ATOM     88  N4    C A   4     -31.677   9.010  27.204  1.00  0.00    -0.384 N 
ATOM     89  H41   C A   4     -31.828   9.449  26.308  1.00  0.00     0.157 HD
ATOM     90  H42   C A   4     -31.943   8.044  27.342  1.00  0.00     0.157 HD
ATOM     91  C5    C A   4     -30.743  11.054  28.022  1.00  0.00     0.067 A 
ATOM     92  C2'   C A   4     -27.866  11.610  31.458  1.00  0.00     0.199 C 
ATOM     93  O2'   C A   4     -27.443  11.797  32.796  1.00  0.00    -0.388 OA
ATOM     94 'HO2   C A   4     -26.549  12.139  32.758  1.00  0.00     0.210 HD
ATOM     95  C3'   C A   4     -27.446  12.775  30.573  1.00  0.00     0.198 C 
ATOM     96  O3'   C A   4     -26.099  13.178  30.810  1.00  0.00    -0.279 OA
ATOM     97  P     T A   5     -24.974  12.906  29.692  1.00  0.00     0.408 P 
ATOM     98  OP1   T A   5     -23.718  13.553  30.149  1.00  0.00    -0.624 OA
ATOM     99  OP2   T A   5     -25.542  13.260  28.366  1.00  0.00    -0.624 OA
ATOM    100  O5'   T A   5     -24.764  11.324  29.730  1.00  0.00    -0.287 OA
ATOM    101  C5'   T A   5     -23.899  10.716  30.690  1.00  0.00     0.216 C 
ATOM    102  C4'   T A   5     -24.543   9.472  31.263  1.00  0.00     0.180 C 
ATOM    103  O4'   T A   5     -25.989   9.604  31.177  1.00  0.00    -0.353 OA
ATOM    104  C1'   T A   5     -26.566   8.361  30.818  1.00  0.00     0.264 C 
ATOM    105  N1    T A   5     -27.209   8.508  29.504  1.00  0.00    -0.280 N 
ATOM    106  C6    T A   5     -27.129   9.688  28.796  1.00  0.00     0.104 A 
ATOM    107  C2    T A   5     -27.901   7.421  28.996  1.00  0.00     0.331 A 
ATOM    108  O2    T A   5     -27.999   6.360  29.590  1.00  0.00    -0.246 OA
ATOM    109  N3    T A   5     -28.475   7.622  27.768  1.00  0.00    -0.275 N 
ATOM    110  H3    T A   5     -28.996   6.853  27.380  1.00  0.00     0.173 HD
ATOM    111  C4    T A   5     -28.433   8.769  27.011  1.00  0.00     0.250 A 
ATOM    112  O4    T A   5     -28.996   8.790  25.916  1.00  0.00    -0.268 OA
ATOM    113  C5    T A   5     -27.706   9.847  27.602  1.00  0.00     0.092 A 
ATOM    114  C2'   T A   5     -25.451   7.316  30.848  1.00  0.00     0.199 C 
ATOM    115  O2'   T A   5     -25.373   6.776  32.155  1.00  0.00    -0.388 OA
ATOM    116 'HO2   T A   5     -24.482   6.938  32.467  1.00  0.00     0.210 HD
ATOM    117  C3'   T A   5     -24.234   8.174  30.527  1.00  0.00     0.198 C 
ATOM    118  O3'   T A   5     -23.019   7.586  30.986  1.00  0.00    -0.279 OA
ATOM    119  P     C A   6     -21.790   7.380  29.966  1.00  0.00     0.408 P 
ATOM    120  OP1   C A   6     -20.604   7.006  30.778  1.00  0.00    -0.624 OA
ATOM    121  OP2   C A   6     -21.722   8.565  29.073  1.00  0.00    -0.624 OA
ATOM    122  O5'   C A   6     -22.225   6.119  29.090  1.00  0.00    -0.287 OA
ATOM    123  C5'   C A   6     -21.272   5.135  28.677  1.00  0.00     0.216 C 
ATOM    124  C4'   C A   6     -21.844   3.744  28.854  1.00  0.00     0.180 C 
ATOM    125  O4'   C A   6     -23.144   3.847  29.509  1.00  0.00    -0.353 OA
ATOM    126  C1'   C A   6     -24.094   3.071  28.801  1.00  0.00     0.264 C 
ATOM    127  N1    C A   6     -24.926   3.970  27.985  1.00  0.00    -0.278 N 
ATOM    128  C6    C A   6     -24.829   5.328  28.110  1.00  0.00     0.102 A 
ATOM    129  C2    C A   6     -25.808   3.410  27.063  1.00  0.00     0.352 A 
ATOM    130  O2    C A   6     -25.895   2.174  26.987  1.00  0.00    -0.244 OA
ATOM    131  N3    C A   6     -26.549   4.218  26.278  1.00  0.00    -0.177 NA
ATOM    132  C4    C A   6     -26.442   5.541  26.395  1.00  0.00     0.128 A 
ATOM    133  N4    C A   6     -27.188   6.294  25.587  1.00  0.00    -0.384 N 
ATOM    134  H41   C A   6     -27.151   7.302  25.626  1.00  0.00     0.157 HD
ATOM    135  H42   C A   6     -27.795   5.834  24.922  1.00  0.00     0.157 HD
ATOM    136  C5    C A   6     -25.565   6.146  27.343  1.00  0.00     0.067 A 
ATOM    137  C2'   C A   6     -23.288   2.087  27.963  1.00  0.00     0.199 C 
ATOM    138  O2'   C A   6     -22.870   1.013  28.786  1.00  0.00    -0.388 OA
ATOM    139 'HO2   C A   6     -21.916   1.064  28.845  1.00  0.00     0.210 HD
ATOM    140  C3'   C A   6     -22.122   2.976  27.564  1.00  0.00     0.198 C 
ATOM    141  O3'   C A   6     -21.002   2.220  27.113  1.00  0.00    -0.279 OA
ATOM    142  P     G A   7     -20.591   2.260  25.558  1.00  0.00     0.408 P 
ATOM    143  OP1   G A   7     -21.849   2.320  24.769  1.00  0.00    -0.624 OA
ATOM    144  OP2   G A   7     -19.575   3.330  25.401  1.00  0.00    -0.624 OA
ATOM    145  O5'   G A   7     -19.904   0.845  25.292  1.00  0.00    -0.287 OA
ATOM    146  C5'   G A   7     -19.993   0.205  24.014  1.00  0.00     0.216 C 
ATOM    147  C4'   G A   7     -18.641   0.201  23.335  1.00  0.00     0.180 C 
ATOM    148  O4'   G A   7     -18.832   0.511  21.926  1.00  0.00    -0.353 OA
ATOM    149  C1'   G A   7     -18.229   1.749  21.643  1.00  0.00     0.262 C 
ATOM    150  N9    G A   7     -19.243   2.785  21.814  1.00  0.00    -0.293 N 
ATOM    151  C4    G A   7     -20.479   2.793  21.223  1.00  0.00     0.187 A 
ATOM    152  N3    G A   7     -20.951   1.858  20.374  1.00  0.00    -0.044 NA
ATOM    153  C2    G A   7     -22.174   2.132  19.971  1.00  0.00     0.703 A 
ATOM    154  N2    G A   7     -22.780   1.301  19.126  1.00  0.00    -0.233 N 
ATOM    155  H21   G A   7     -22.291   0.478  18.810  1.00  0.00     0.174 HD
ATOM    156  H22   G A   7     -23.721   1.489  18.808  1.00  0.00     0.174 HD
ATOM    157  N1    G A   7     -22.886   3.236  20.367  1.00  0.00    -0.153 N 
ATOM    158  H1    G A   7     -23.819   3.350  19.999  1.00  0.00     0.187 HD
ATOM    159  C6    G A   7     -22.421   4.213  21.242  1.00  0.00     0.292 A 
ATOM    160  O6    G A   7     -23.149   5.169  21.538  1.00  0.00    -0.265 OA
ATOM    161  C5    G A   7     -21.100   3.933  21.683  1.00  0.00     0.173 A 
ATOM    162  N7    G A   7     -20.267   4.634  22.544  1.00  0.00    -0.234 NA
ATOM    163  C8    G A   7     -19.178   3.917  22.589  1.00  0.00     0.214 A 
ATOM    164  C2'   G A   7     -17.038   1.826  22.591  1.00  0.00     0.199 C 
ATOM    165  O2'   G A   7     -16.011   1.000  22.078  1.00  0.00    -0.388 OA
ATOM    166 'HO2   G A   7     -16.356   0.104  22.048  1.00  0.00     0.210 HD
ATOM    167  C3'   G A   7     -17.650   1.241  23.861  1.00  0.00     0.198 C 
ENDROOT
BRANCH 167 168
ATOM    168  O3'   G A   7     -16.690   0.633  24.717  1.00  0.00    -0.279 OA
BRANCH 168 169
ATOM    169  P     T A   8     -16.168   1.428  26.016  1.00  0.00     0.408 P 
ATOM    170  OP2   T A   8     -14.787   0.974  26.318  1.00  0.00    -0.624 OA
ATOM    171  OP1   T A   8     -17.219   1.328  27.061  1.00  0.00    -0.624 OA
BRANCH 169 172
ATOM    172  O5'   T A   8     -16.095   2.945  25.537  1.00  0.00    -0.287 OA
BRANCH 172 173
ATOM    173  C5'   T A   8     -14.853   3.533  25.154  1.00  0.00     0.216 C 
BRANCH 173 174
ATOM    174  C4'   T A   8     -14.923   5.033  25.296  1.00  0.00     0.180 C 
ATOM    175  O4'   T A   8     -16.269   5.405  25.704  1.00  0.00    -0.353 OA
ATOM    176  C1'   T A   8     -16.207   6.443  26.667  1.00  0.00     0.264 C 
ATOM    177  C2'   T A   8     -14.752   6.909  26.740  1.00  0.00     0.199 C 
ATOM    178  N1    T A   8     -16.724   5.926  27.942  1.00  0.00    -0.280 N 
ATOM    179  C3'   T A   8     -14.018   5.628  26.366  1.00  0.00     0.198 C 
ATOM    180  C6    T A   8     -16.368   4.679  28.402  1.00  0.00     0.104 A 
ATOM    181  C2    T A   8     -17.579   6.735  28.669  1.00  0.00     0.331 A 
ATOM    182  C5    T A   8     -16.811   4.192  29.564  1.00  0.00     0.092 A 
ATOM    183  C4    T A   8     -17.693   4.968  30.376  1.00  0.00     0.250 A 
ATOM    184  N3    T A   8     -18.016   6.200  29.854  1.00  0.00    -0.275 N 
ATOM    185  O4    T A   8     -18.146   4.638  31.472  1.00  0.00    -0.268 OA
ATOM    186  H3    T A   8     -18.649   6.761  30.401  1.00  0.00     0.173 HD
ATOM    187  O2    T A   8     -17.922   7.843  28.296  1.00  0.00    -0.246 OA
BRANCH 177 188
ATOM    188  O2'   T A   8     -14.550   7.920  25.769  1.00  0.00    -0.388 OA
ATOM    189 'HO2   T A   8     -15.305   7.890  25.179  1.00  0.00     0.210 HD
ENDBRANCH 177 188
BRANCH 179 190
ATOM    190  O3'   T A   8     -12.707   5.868  25.861  1.00  0.00    -0.279 OA
BRANCH 190 191
ATOM    191  P     G A   9     -11.419   5.448  26.730  1.00  0.00     0.408 P 
ATOM    192  OP1   G A   9     -10.633   4.489  25.913  1.00  0.00    -0.624 OA
ATOM    193  OP2   G A   9     -11.846   5.065  28.100  1.00  0.00    -0.624 OA
BRANCH 191 194
ATOM    194  O5'   G A   9     -10.579   6.798  26.832  1.00  0.00    -0.287 OA
BRANCH 194 195
ATOM    195  C5'   G A   9     -10.955   7.826  27.748  1.00  0.00     0.216 C 
BRANCH 195 196
ATOM    196  C4'   G A   9      -9.776   8.216  28.608  1.00  0.00     0.180 C 
ATOM    197  O4'   G A   9      -9.177   7.020  29.170  1.00  0.00    -0.353 OA
ATOM    198  C1'   G A   9      -7.778   7.208  29.300  1.00  0.00     0.262 C 
ATOM    199  C2'   G A   9      -7.449   8.621  28.814  1.00  0.00     0.199 C 
ATOM    200  N9    G A   9      -7.100   6.165  28.539  1.00  0.00    -0.293 N 
ATOM    201  C3'   G A   9      -8.624   8.894  27.883  1.00  0.00     0.198 C 
ATOM    202  O3'   G A   9      -8.862  10.288  27.702  1.00  0.00    -0.279 OA
ATOM    203  P     G A  10      -8.434  10.998  26.323  1.00  0.00     0.408 P 
ATOM    204  OP2   G A  10      -9.164  10.339  25.211  1.00  0.00    -0.624 OA
ATOM    205  OP1   G A  10      -8.573  12.463  26.525  1.00  0.00    -0.624 OA
ATOM    206  O5'   G A  10      -6.882  10.661  26.175  1.00  0.00    -0.287 OA
ATOM    207  C8    G A   9      -7.327   5.811  27.231  1.00  0.00     0.214 A 
ATOM    208  C4    G A   9      -6.099   5.342  28.993  1.00  0.00     0.187 A 
ATOM    209  N7    G A   9      -6.558   4.841  26.818  1.00  0.00    -0.234 NA
ATOM    210  C5    G A   9      -5.773   4.536  27.924  1.00  0.00     0.173 A 
ATOM    211  C6    G A   9      -4.749   3.565  28.090  1.00  0.00     0.292 A 
ATOM    212  N1    G A   9      -4.220   3.595  29.376  1.00  0.00    -0.153 N 
ATOM    213  O6    G A   9      -4.311   2.756  27.267  1.00  0.00    -0.265 OA
ATOM    214  H1    G A   9      -3.485   2.935  29.578  1.00  0.00     0.187 HD
ATOM    215  C2    G A   9      -4.620   4.445  30.374  1.00  0.00     0.703 A 
ATOM    216  N3    G A   9      -5.567   5.353  30.236  1.00  0.00    -0.044 NA
ATOM    217  N2    G A   9      -3.993   4.319  31.545  1.00  0.00    -0.233 N 
ATOM    218  H22   G A   9      -3.271   3.626  31.676  1.00  0.00     0.174 HD
ATOM    219  H21   G A   9      -4.262   4.927  32.305  1.00  0.00     0.174 HD
BRANCH 199 220
ATOM    220  O2'   G A   9      -7.464   9.501  29.923  1.00  0.00    -0.388 OA
ATOM    221 'HO2   G A   9      -7.314   8.955  30.695  1.00  0.00     0.210 HD
ENDBRANCH 199 220
BRANCH 206 222
ATOM    222  C5'   G A  10      -5.916  11.240  27.051  1.00  0.00     0.216 C 
BRANCH 222 223
ATOM    223  C4'   G A  10      -5.065  12.247  26.308  1.00  0.00     0.180 C 
ATOM    224  O4'   G A  10      -5.456  13.591  26.689  1.00  0.00    -0.353 OA
ATOM    225  C1'   G A  10      -4.329  14.449  26.630  1.00  0.00     0.262 C 
ATOM    226  C2'   G A  10      -3.118  13.605  26.222  1.00  0.00     0.199 C 
ATOM    227  C3'   G A  10      -3.575  12.203  26.615  1.00  0.00     0.198 C 
BRANCH 225 228
ATOM    228  N9    G A  10      -4.180  15.106  27.926  1.00  0.00    -0.293 N 
ATOM    229  C4    G A  10      -3.614  16.336  28.158  1.00  0.00     0.187 A 
ATOM    230  N3    G A  10      -3.090  17.158  27.225  1.00  0.00    -0.044 NA
ATOM    231  C5    G A  10      -3.701  16.530  29.522  1.00  0.00     0.173 A 
ATOM    232  C2    G A  10      -2.620  18.272  27.754  1.00  0.00     0.703 A 
ATOM    233  N1    G A  10      -2.660  18.563  29.095  1.00  0.00    -0.153 N 
ATOM    234  N2    G A  10      -2.064  19.198  26.969  1.00  0.00    -0.233 N 
ATOM    235  C6    G A  10      -3.191  17.734  30.076  1.00  0.00     0.292 A 
ATOM    236  H1    G A  10      -2.271  19.446  29.388  1.00  0.00     0.187 HD
ATOM    237  O6    G A  10      -3.173  18.094  31.260  1.00  0.00    -0.265 OA
ATOM    238  H21   G A  10      -2.009  19.033  25.975  1.00  0.00     0.174 HD
ATOM    239  H22   G A  10      -1.703  20.055  27.364  1.00  0.00     0.174 HD
ATOM    240  N7    G A  10      -4.310  15.441  30.135  1.00  0.00    -0.234 NA
ATOM    241  C8    G A  10      -4.575  14.625  29.152  1.00  0.00     0.214 A 
ENDBRANCH 225 228
BRANCH 226 242
ATOM    242  O2'   G A  10      -2.945  13.709  24.822  1.00  0.00    -0.388 OA
ATOM    243 'HO2   G A  10      -2.818  12.819  24.495  1.00  0.00     0.210 HD
ENDBRANCH 226 242
BRANCH 227 244
ATOM    244  O3'   G A  10      -2.918  11.182  25.865  1.00  0.00    -0.279 OA
BRANCH 244 245
ATOM    245  P     C A  11      -3.649  10.525  24.591  1.00  0.00     0.408 P 
ATOM    246  OP2   C A  11      -4.329   9.277  25.022  1.00  0.00    -0.624 OA
ATOM    247  OP1   C A  11      -4.439  11.601  23.937  1.00  0.00    -0.624 OA
BRANCH 245 248
ATOM    248  O5'   C A  11      -2.449  10.130  23.622  1.00  0.00    -0.287 OA
BRANCH 248 249
ATOM    249  C5'   C A  11      -1.758  11.125  22.869  1.00  0.00     0.216 C 
BRANCH 249 250
ATOM    250  C4'   C A  11      -1.375  10.582  21.512  1.00  0.00     0.180 C 
ATOM    251  O4'   C A  11      -1.114   9.160  21.631  1.00  0.00    -0.353 OA
ATOM    252  C1'   C A  11      -1.496   8.507  20.432  1.00  0.00     0.264 C 
ATOM    253  C2'   C A  11      -2.045   9.565  19.472  1.00  0.00     0.199 C 
ATOM    254  C3'   C A  11      -2.450  10.672  20.439  1.00  0.00     0.198 C 
BRANCH 252 255
ATOM    255  N1    C A  11      -2.468   7.453  20.763  1.00  0.00    -0.278 N 
ATOM    256  C2    C A  11      -2.241   6.160  20.292  1.00  0.00     0.352 A 
ATOM    257  O2    C A  11      -1.227   5.936  19.618  1.00  0.00    -0.244 OA
ATOM    258  N3    C A  11      -3.127   5.183  20.582  1.00  0.00    -0.177 NA
ATOM    259  C4    C A  11      -4.206   5.460  21.314  1.00  0.00     0.128 A 
ATOM    260  N4    C A  11      -5.052   4.463  21.574  1.00  0.00    -0.384 N 
ATOM    261  C5    C A  11      -4.465   6.771  21.812  1.00  0.00     0.067 A 
ATOM    262  H41   C A  11      -5.881   4.628  22.125  1.00  0.00     0.157 HD
ATOM    263  H42   C A  11      -4.856   3.539  21.215  1.00  0.00     0.157 HD
ATOM    264  C6    C A  11      -3.577   7.728  21.515  1.00  0.00     0.102 A 
ENDBRANCH 252 255
BRANCH 253 265
ATOM    265  O2'   C A  11      -0.995   9.984  18.622  1.00  0.00    -0.388 OA
ATOM    266 'HO2   C A  11      -1.389  10.528  17.940  1.00  0.00     0.210 HD
ENDBRANCH 253 265
BRANCH 254 267
ATOM    267  O3'   C A  11      -2.468  11.956  19.819  1.00  0.00    -0.279 OA
BRANCH 267 268
ATOM    268  P     G A  12      -1.106  12.800  19.684  1.00  0.00     0.408 P 
ATOM    269  OP2   G A  12       0.007  12.002  20.260  1.00  0.00    -0.624 OA
ATOM    270  OP1   G A  12      -1.021  13.267  18.277  1.00  0.00    -0.624 OA
BRANCH 268 271
ATOM    271  O5'   G A  12      -1.352  14.078  20.606  1.00  0.00    -0.287 OA
BRANCH 271 272
ATOM    272  C5'   G A  12      -2.363  15.036  20.292  1.00  0.00     0.216 C 
BRANCH 272 273
ATOM    273  C4'   G A  12      -3.271  15.241  21.482  1.00  0.00     0.180 C 
ATOM    274  O4'   G A  12      -2.496  15.801  22.575  1.00  0.00    -0.353 OA
ATOM    275  C1'   G A  12      -3.292  16.718  23.305  1.00  0.00     0.262 C 
ATOM    276  N9    G A  12      -2.659  18.032  23.243  1.00  0.00    -0.293 N 
ATOM    277  C2'   G A  12      -4.699  16.691  22.706  1.00  0.00     0.199 C 
ATOM    278  C4    G A  12      -3.153  19.202  23.769  1.00  0.00     0.187 A 
ATOM    279  C8    G A  12      -1.461  18.351  22.650  1.00  0.00     0.214 A 
ATOM    280  N3    G A  12      -4.314  19.339  24.442  1.00  0.00    -0.044 NA
ATOM    281  C5    G A  12      -2.218  20.167  23.460  1.00  0.00     0.173 A 
ATOM    282  C2    G A  12      -4.517  20.586  24.825  1.00  0.00     0.703 A 
ATOM    283  N1    G A  12      -3.654  21.619  24.568  1.00  0.00    -0.153 N 
ATOM    284  N2    G A  12      -5.622  20.897  25.506  1.00  0.00    -0.233 N 
ATOM    285  C6    G A  12      -2.454  21.504  23.875  1.00  0.00     0.292 A 
ATOM    286  H1    G A  12      -3.905  22.536  24.906  1.00  0.00     0.187 HD
ATOM    287  O6    G A  12      -1.752  22.505  23.694  1.00  0.00    -0.265 OA
ATOM    288  H22   G A  12      -5.785  21.843  25.813  1.00  0.00     0.174 HD
ATOM    289  H21   G A  12      -6.291  20.171  25.722  1.00  0.00     0.174 HD
ATOM    290  N7    G A  12      -1.157  19.615  22.754  1.00  0.00    -0.234 NA
ATOM    291  C3'   G A  12      -4.406  16.236  21.280  1.00  0.00     0.198 C 
BRANCH 277 292
ATOM    292  O2'   G A  12      -5.470  15.732  23.403  1.00  0.00    -0.388 OA
ATOM    293 'HO2   G A  12      -6.288  16.162  23.654  1.00  0.00     0.210 HD
ENDBRANCH 277 292
BRANCH 291 294
ATOM    294  O3'   G A  12      -5.537  15.629  20.661  1.00  0.00    -0.279 OA
BRANCH 294 295
ATOM    295  P     T A  13      -6.128  16.245  19.297  1.00  0.00     0.408 P 
ATOM    296  OP2   T A  13      -4.990  16.582  18.404  1.00  0.00    -0.624 OA
ATOM    297  OP1   T A  13      -7.190  15.324  18.816  1.00  0.00    -0.624 OA
BRANCH 295 298
ATOM    298  O5'   T A  13      -6.817  17.606  19.754  1.00  0.00    -0.287 OA
BRANCH 298 299
ATOM    299  C5'   T A  13      -8.000  18.081  19.114  1.00  0.00     0.216 C 
BRANCH 299 300
ATOM    300  C4'   T A  13      -7.708  19.356  18.356  1.00  0.00     0.180 C 
ATOM    301  O4'   T A  13      -8.888  20.208  18.396  1.00  0.00    -0.353 OA
ATOM    302  C1'   T A  13      -8.497  21.554  18.608  1.00  0.00     0.264 C 
ATOM    303  N1    T A  13      -8.959  21.970  19.941  1.00  0.00    -0.280 N 
ATOM    304  C2'   T A  13      -6.981  21.610  18.443  1.00  0.00     0.199 C 
ATOM    305  C6    T A  13      -9.375  21.048  20.875  1.00  0.00     0.104 A 
ATOM    306  C2    T A  13      -8.956  23.322  20.228  1.00  0.00     0.331 A 
ATOM    307  C5    T A  13      -9.791  21.403  22.094  1.00  0.00     0.092 A 
ATOM    308  C4    T A  13      -9.815  22.783  22.467  1.00  0.00     0.250 A 
ATOM    309  O4    T A  13     -10.176  23.234  23.554  1.00  0.00    -0.268 OA
ATOM    310  N3    T A  13      -9.387  23.648  21.488  1.00  0.00    -0.275 N 
ATOM    311  H3    T A  13      -9.387  24.630  21.717  1.00  0.00     0.173 HD
ATOM    312  O2    T A  13      -8.600  24.169  19.430  1.00  0.00    -0.246 OA
ATOM    313  C3'   T A  13      -6.592  20.220  18.928  1.00  0.00     0.198 C 
ATOM    314  O2'   T A  13      -6.677  21.777  17.071  1.00  0.00    -0.388 OA
ATOM    315  O3'   T A  13      -5.311  19.817  18.455  1.00  0.00    -0.279 OA
ATOM    316  P     C A  14      -4.011  20.043  19.374  1.00  0.00     0.408 P 
ATOM    317  OP2   C A  14      -4.357  19.685  20.774  1.00  0.00    -0.624 OA
ATOM    318  OP1   C A  14      -2.871  19.367  18.704  1.00  0.00    -0.624 OA
ATOM    319  O5'   C A  14      -3.763  21.617  19.314  1.00  0.00    -0.287 OA
ATOM    320  C5'   C A  14      -3.307  22.242  18.114  1.00  0.00     0.216 C 
ATOM    321  C4'   C A  14      -3.281  23.745  18.285  1.00  0.00     0.180 C 
ATOM    322  O4'   C A  14      -4.602  24.204  18.679  1.00  0.00    -0.353 OA
ATOM    323  C3'   C A  14      -2.365  24.270  19.381  1.00  0.00     0.198 C 
ATOM    324  C1'   C A  14      -4.481  25.295  19.576  1.00  0.00     0.264 C 
ATOM    325  N1    C A  14      -5.120  24.923  20.850  1.00  0.00    -0.278 N 
ATOM    326  C2'   C A  14      -2.992  25.618  19.709  1.00  0.00     0.199 C 
ATOM    327  C6    C A  14      -5.405  23.617  21.138  1.00  0.00     0.102 A 
ATOM    328  C2    C A  14      -5.437  25.932  21.766  1.00  0.00     0.352 A 
ATOM    329  C5    C A  14      -5.992  23.276  22.292  1.00  0.00     0.067 A 
ATOM    330  C4    C A  14      -6.305  24.326  23.204  1.00  0.00     0.128 A 
ATOM    331  N3    C A  14      -6.029  25.603  22.935  1.00  0.00    -0.177 NA
ATOM    332  N4    C A  14      -6.891  24.050  24.368  1.00  0.00    -0.384 N 
ATOM    333  H42   C A  14      -7.106  24.801  25.009  1.00  0.00     0.157 HD
ATOM    334  H41   C A  14      -7.119  23.097  24.613  1.00  0.00     0.157 HD
ATOM    335  O2    C A  14      -5.165  27.109  21.484  1.00  0.00    -0.244 OA
ATOM    336  O2'   C A  14      -2.654  26.591  18.739  1.00  0.00    -0.388 OA
ATOM    337 'HO2   C A  14      -1.907  26.249  18.247  1.00  0.00     0.210 HD
ATOM    338  O3'   C A  14      -1.018  24.391  18.927  1.00  0.00    -0.279 OA
ATOM    339  P     T A  15       0.181  24.483  19.998  1.00  0.00     0.408 P 
ATOM    340  OP2   T A  15      -0.048  23.460  21.049  1.00  0.00    -0.624 OA
ATOM    341  O5'   T A  15      -0.001  25.923  20.657  1.00  0.00    -0.287 OA
ATOM    342  OP1   T A  15       1.455  24.479  19.234  1.00  0.00    -0.624 OA
ATOM    343  C5'   T A  15       0.180  27.112  19.888  1.00  0.00     0.216 C 
ATOM    344  C4'   T A  15       0.200  28.321  20.793  1.00  0.00     0.180 C 
ATOM    345  C3'   T A  15       1.023  28.176  22.066  1.00  0.00     0.198 C 
ATOM    346  O4'   T A  15      -1.150  28.583  21.266  1.00  0.00    -0.353 OA
ATOM    347  O3'   T A  15       2.402  28.458  21.839  1.00  0.00    -0.279 OA
ATOM    348  C2'   T A  15       0.361  29.187  22.993  1.00  0.00     0.199 C 
ATOM    349  P     G A  16       3.521  27.751  22.752  1.00  0.00     0.408 P 
ATOM    350  O5'   G A  16       3.374  28.468  24.168  1.00  0.00    -0.287 OA
ATOM    351  OP2   G A  16       3.163  26.319  22.917  1.00  0.00    -0.624 OA
ATOM    352  OP1   G A  16       4.846  28.114  22.185  1.00  0.00    -0.624 OA
ATOM    353  C5'   G A  16       3.947  29.753  24.403  1.00  0.00     0.216 C 
ATOM    354  C4'   G A  16       3.436  30.326  25.704  1.00  0.00     0.180 C 
ATOM    355  C3'   G A  16       3.936  29.643  26.969  1.00  0.00     0.198 C 
ATOM    356  O4'   G A  16       1.994  30.162  25.769  1.00  0.00    -0.353 OA
ATOM    357  C2'   G A  16       2.858  30.010  27.982  1.00  0.00     0.199 C 
ATOM    358  O3'   G A  16       5.225  30.116  27.351  1.00  0.00    -0.279 OA
ATOM    359  O2'   G A  16       3.028  31.335  28.450  1.00  0.00    -0.388 OA
ATOM    360  C1'   G A  16       1.599  29.956  27.115  1.00  0.00     0.262 C 
ATOM    361 'HO2   G A  16       3.952  31.555  28.321  1.00  0.00     0.210 HD
ATOM    362  N9    G A  16       0.889  28.683  27.198  1.00  0.00    -0.293 N 
ATOM    363  C4    G A  16       0.128  28.241  28.254  1.00  0.00     0.187 A 
ATOM    364  C8    G A  16       0.841  27.693  26.248  1.00  0.00     0.214 A 
ATOM    365  N3    G A  16      -0.090  28.907  29.408  1.00  0.00    -0.044 NA
ATOM    366  C5    G A  16      -0.344  27.004  27.873  1.00  0.00     0.173 A 
ATOM    367  C2    G A  16      -0.864  28.225  30.231  1.00  0.00     0.703 A 
ATOM    368  N1    G A  16      -1.386  26.988  29.949  1.00  0.00    -0.153 N 
ATOM    369  N2    G A  16      -1.179  28.738  31.423  1.00  0.00    -0.233 N 
ATOM    370  H1    G A  16      -1.968  26.554  30.649  1.00  0.00     0.187 HD
ATOM    371  C6    G A  16      -1.175  26.283  28.770  1.00  0.00     0.292 A 
ATOM    372  O6    G A  16      -1.694  25.172  28.617  1.00  0.00    -0.265 OA
ATOM    373  H22   G A  16      -1.767  28.225  32.064  1.00  0.00     0.174 HD
ATOM    374  H21   G A  16      -0.820  29.646  31.680  1.00  0.00     0.174 HD
ATOM    375  N7    G A  16       0.113  26.671  26.604  1.00  0.00    -0.234 NA
ATOM    376  P     A A  17       6.182  29.190  28.255  1.00  0.00     0.408 P 
ATOM    377  O5'   A A  17       5.385  29.029  29.625  1.00  0.00    -0.287 OA
ATOM    378  OP1   A A  17       7.419  29.966  28.526  1.00  0.00    -0.624 OA
ATOM    379  OP2   A A  17       6.281  27.853  27.615  1.00  0.00    -0.624 OA
ATOM    380  C5'   A A  17       5.173  30.145  30.489  1.00  0.00     0.216 C 
ATOM    381  C4'   A A  17       4.616  29.683  31.815  1.00  0.00     0.180 C 
ATOM    382  O4'   A A  17       3.219  29.330  31.647  1.00  0.00    -0.353 OA
ATOM    383  C3'   A A  17       5.245  28.425  32.392  1.00  0.00     0.198 C 
ATOM    384  C1'   A A  17       2.887  28.273  32.532  1.00  0.00     0.262 C 
ATOM    385  C2'   A A  17       4.149  27.900  33.314  1.00  0.00     0.199 C 
ATOM    386  N9    A A  17       2.336  27.172  31.744  1.00  0.00    -0.294 N 
ATOM    387  O2'   A A  17       4.140  28.601  34.543  1.00  0.00    -0.388 OA
ATOM    388 'HO2   A A  17       4.994  29.029  34.622  1.00  0.00     0.210 HD
ATOM    389  C4    A A  17       1.489  26.192  32.204  1.00  0.00     0.167 A 
ATOM    390  C8    A A  17       2.540  26.895  30.415  1.00  0.00     0.214 A 
ATOM    391  N3    A A  17       1.011  26.049  33.452  1.00  0.00    -0.222 NA
ATOM    392  C5    A A  17       1.226  25.380  31.117  1.00  0.00     0.149 A 
ATOM    393  C2    A A  17       0.213  24.986  33.529  1.00  0.00     0.237 A 
ATOM    394  N1    A A  17      -0.134  24.115  32.573  1.00  0.00    -0.222 NA
ATOM    395  C6    A A  17       0.367  24.287  31.330  1.00  0.00     0.155 A 
ATOM    396  N6    A A  17       0.022  23.417  30.379  1.00  0.00    -0.382 N 
ATOM    397  H62   A A  17      -0.599  22.651  30.597  1.00  0.00     0.157 HD
ATOM    398  H61   A A  17       0.384  23.526  29.444  1.00  0.00     0.157 HD
ATOM    399  N7    A A  17       1.898  25.835  29.990  1.00  0.00    -0.236 NA
ATOM    400  O3'   A A  17       6.451  28.718  33.094  1.00  0.00    -0.279 OA
ATOM    401  P     C A  18       7.676  27.675  33.052  1.00  0.00     0.408 P 
ATOM    402  O5'   C A  18       7.140  26.415  33.867  1.00  0.00    -0.287 OA
ATOM    403  OP2   C A  18       7.889  27.254  31.643  1.00  0.00    -0.624 OA
ATOM    404  OP1   C A  18       8.797  28.277  33.816  1.00  0.00    -0.624 OA
ATOM    405  C5'   C A  18       6.695  26.545  35.217  1.00  0.00     0.216 C 
ATOM    406  C4'   C A  18       5.926  25.312  35.631  1.00  0.00     0.180 C 
ATOM    407  C3'   C A  18       6.635  23.988  35.375  1.00  0.00     0.198 C 
ATOM    408  O4'   C A  18       4.704  25.241  34.848  1.00  0.00    -0.353 OA
ATOM    409  C2'   C A  18       5.478  23.017  35.177  1.00  0.00     0.199 C 
ATOM    410  O3'   C A  18       7.466  23.625  36.476  1.00  0.00    -0.279 OA
ATOM    411  C1'   C A  18       4.462  23.903  34.455  1.00  0.00     0.264 C 
ATOM    412  O2'   C A  18       4.933  22.615  36.420  1.00  0.00    -0.388 OA
ATOM    413  N1    C A  18       4.544  23.831  32.988  1.00  0.00    -0.278 N 
ATOM    414  C2    C A  18       3.535  23.164  32.286  1.00  0.00     0.352 A 
ATOM    415  C6    C A  18       5.587  24.403  32.315  1.00  0.00     0.102 A 
ATOM    416  O2    C A  18       2.597  22.658  32.918  1.00  0.00    -0.244 OA
ATOM    417  N3    C A  18       3.607  23.087  30.938  1.00  0.00    -0.177 NA
ATOM    418  C4    C A  18       4.632  23.646  30.293  1.00  0.00     0.128 A 
ATOM    419  C5    C A  18       5.671  24.336  30.981  1.00  0.00     0.067 A 
ATOM    420  N4    C A  18       4.661  23.542  28.966  1.00  0.00    -0.384 N 
ATOM    421  H41   C A  18       5.421  23.950  28.440  1.00  0.00     0.157 HD
ATOM    422  H42   C A  18       3.920  23.052  28.487  1.00  0.00     0.157 HD
ATOM    423 'HO2   C A  18       5.584  22.833  37.087  1.00  0.00     0.210 HD
ATOM    424  P     T A  19       8.935  23.027  36.207  1.00  0.00     0.408 P 
ATOM    425  O5'   T A  19       8.686  21.466  36.008  1.00  0.00    -0.287 OA
ATOM    426  OP1   T A  19       9.720  23.211  37.455  1.00  0.00    -0.624 OA
ATOM    427  OP2   T A  19       9.451  23.583  34.929  1.00  0.00    -0.624 OA
ATOM    428  C1'   T A  15      -1.109  29.001  22.620  1.00  0.00     0.264 C 
ATOM    429  O2'   T A  15       0.749  30.511  22.675  1.00  0.00    -0.388 OA
ATOM    430  N1    T A  15      -1.798  27.993  23.440  1.00  0.00    -0.280 N 
ATOM    431  C2    T A  15      -2.402  28.415  24.610  1.00  0.00     0.331 A 
ATOM    432  C6    T A  15      -1.839  26.669  23.060  1.00  0.00     0.104 A 
ATOM    433  N3    T A  15      -3.020  27.428  25.332  1.00  0.00    -0.275 N 
ATOM    434  O2    T A  15      -2.391  29.575  24.980  1.00  0.00    -0.246 OA
ATOM    435  H3    T A  15      -3.459  27.713  26.195  1.00  0.00     0.173 HD
ATOM    436  C4    T A  15      -3.101  26.093  25.012  1.00  0.00     0.250 A 
ATOM    437  O4    T A  15      -3.706  25.328  25.764  1.00  0.00    -0.268 OA
ATOM    438  C5    T A  15      -2.456  25.734  23.789  1.00  0.00     0.092 A 
ATOM    439 'HO2   T A  15       1.536  30.698  23.188  1.00  0.00     0.210 HD
ATOM    440 'HO2   T A  13      -5.932  21.206  16.882  1.00  0.00     0.210 HD
BRANCH 425 441
ATOM    441  C5'   T A  19       9.690  20.628  35.436  1.00  0.00     0.216 C 
BRANCH 441 442
ATOM    442  C4'   T A  19       9.063  19.624  34.498  1.00  0.00     0.180 C 
ATOM    443  O4'   T A  19      10.112  19.009  33.701  1.00  0.00    -0.353 OA
ATOM    444  C1'   T A  19       9.902  17.612  33.620  1.00  0.00     0.264 C 
ATOM    445  C2'   T A  19       8.520  17.314  34.202  1.00  0.00     0.199 C 
ATOM    446  C3'   T A  19       8.349  18.467  35.186  1.00  0.00     0.198 C 
BRANCH 444 447
ATOM    447  N1    T A  19      11.005  16.938  34.321  1.00  0.00    -0.280 N 
ATOM    448  C2    T A  19      11.793  16.067  33.592  1.00  0.00     0.331 A 
ATOM    449  O2    T A  19      11.603  15.831  32.412  1.00  0.00    -0.246 OA
ATOM    450  N3    T A  19      12.811  15.480  34.296  1.00  0.00    -0.275 N 
ATOM    451  H3    T A  19      13.406  14.849  33.782  1.00  0.00     0.173 HD
ATOM    452  C4    T A  19      13.113  15.664  35.626  1.00  0.00     0.250 A 
ATOM    453  O4    T A  19      14.073  15.070  36.117  1.00  0.00    -0.268 OA
ATOM    454  C5    T A  19      12.250  16.573  36.312  1.00  0.00     0.092 A 
ATOM    455  C6    T A  19      11.249  17.168  35.656  1.00  0.00     0.104 A 
ENDBRANCH 444 447
BRANCH 445 456
ATOM    456  O2'   T A  19       7.565  17.383  33.160  1.00  0.00    -0.388 OA
ATOM    457 'HO2   T A  19       6.708  17.246  33.566  1.00  0.00     0.210 HD
ENDBRANCH 445 456
BRANCH 446 458
ATOM    458  O3'   T A  19       6.978  18.778  35.419  1.00  0.00    -0.279 OA
BRANCH 458 459
ATOM    459  P     C A  20       6.398  18.758  36.919  1.00  0.00     0.408 P 
ATOM    460  OP2   C A  20       7.427  18.171  37.816  1.00  0.00    -0.624 OA
ATOM    461  OP1   C A  20       5.864  20.114  37.203  1.00  0.00    -0.624 OA
BRANCH 459 462
ATOM    462  O5'   C A  20       5.168  17.749  36.835  1.00  0.00    -0.287 OA
BRANCH 462 463
ATOM    463  C5'   C A  20       4.985  16.725  37.810  1.00  0.00     0.216 C 
ATOM    464  C4'   C A  20       3.698  15.980  37.542  1.00  0.00     0.180 C 
ATOM    465  C3'   C A  20       3.373  15.760  36.070  1.00  0.00     0.198 C 
ATOM    466  O4'   C A  20       2.589  16.768  38.058  1.00  0.00    -0.353 OA
ATOM    467  C2'   C A  20       1.850  15.719  36.064  1.00  0.00     0.199 C 
ATOM    468  C1'   C A  20       1.524  16.769  37.126  1.00  0.00     0.264 C 
ATOM    469  N1    C A  20       1.376  18.133  36.589  1.00  0.00    -0.278 N 
ATOM    470  C2    C A  20       0.091  18.626  36.344  1.00  0.00     0.352 A 
ATOM    471  C6    C A  20       2.473  18.908  36.335  1.00  0.00     0.102 A 
ATOM    472  O2    C A  20      -0.886  17.904  36.585  1.00  0.00    -0.244 OA
ATOM    473  N3    C A  20      -0.052  19.877  35.852  1.00  0.00    -0.177 NA
ATOM    474  C4    C A  20       1.024  20.625  35.606  1.00  0.00     0.128 A 
ATOM    475  C5    C A  20       2.345  20.148  35.847  1.00  0.00     0.067 A 
ATOM    476  N4    C A  20       0.831  21.851  35.121  1.00  0.00    -0.384 N 
ATOM    477  H42   C A  20      -0.111  22.176  34.957  1.00  0.00     0.157 HD
ATOM    478  H41   C A  20       1.618  22.450  34.922  1.00  0.00     0.157 HD
BRANCH 465 479
ATOM    479  O3'   C A  20       3.953  14.552  35.584  1.00  0.00    -0.279 OA
BRANCH 479 480
ATOM    480  P     C A  21       4.979  14.600  34.346  1.00  0.00     0.408 P 
ATOM    481  OP2   C A  21       4.558  13.583  33.347  1.00  0.00    -0.624 OA
ATOM    482  OP1   C A  21       5.110  16.020  33.935  1.00  0.00    -0.624 OA
BRANCH 480 483
ATOM    483  O5'   C A  21       6.365  14.139  34.980  1.00  0.00    -0.287 OA
BRANCH 483 484
ATOM    484  C5'   C A  21       7.324  13.418  34.209  1.00  0.00     0.216 C 
BRANCH 484 485
ATOM    485  C4'   C A  21       8.053  12.425  35.081  1.00  0.00     0.180 C 
ATOM    486  C3'   C A  21       8.283  11.057  34.451  1.00  0.00     0.198 C 
ATOM    487  O3'   C A  21       9.484  11.033  33.682  1.00  0.00    -0.279 OA
ATOM    488  C2'   C A  21       8.351  10.141  35.666  1.00  0.00     0.199 C 
ATOM    489  P     A A  22       9.499  10.308  32.246  1.00  0.00     0.408 P 
ATOM    490  OP2   A A  22       8.367  10.839  31.444  1.00  0.00    -0.624 OA
ATOM    491  O5'   A A  22       9.200   8.780  32.584  1.00  0.00    -0.287 OA
ATOM    492  OP1   A A  22      10.882  10.405  31.717  1.00  0.00    -0.624 OA
ATOM    493  C5'   A A  22      10.112   8.009  33.364  1.00  0.00     0.216 C 
ATOM    494  C4'   A A  22       9.554   6.626  33.608  1.00  0.00     0.180 C 
ATOM    495  C3'   A A  22       8.906   5.958  32.402  1.00  0.00     0.198 C 
ATOM    496  O4'   A A  22       8.486   6.712  34.593  1.00  0.00    -0.353 OA
ATOM    497  O3'   A A  22       9.865   5.286  31.591  1.00  0.00    -0.279 OA
ATOM    498  C2'   A A  22       7.921   5.001  33.056  1.00  0.00     0.199 C 
ATOM    499  P     G A  23       9.647   5.205  29.999  1.00  0.00     0.408 P 
ATOM    500  OP2   G A  23       9.416   6.580  29.485  1.00  0.00    -0.624 OA
ATOM    501  OP1   G A  23      10.759   4.392  29.445  1.00  0.00    -0.624 OA
ATOM    502  C1'   A A  22       7.418   5.859  34.214  1.00  0.00     0.262 C 
ATOM    503  O2'   A A  22       8.583   3.866  33.582  1.00  0.00    -0.388 OA
ATOM    504  N9    A A  22       6.264   6.691  33.870  1.00  0.00    -0.294 N 
ATOM    505  C4    A A  22       4.963   6.270  33.746  1.00  0.00     0.167 A 
ATOM    506  C8    A A  22       6.249   8.037  33.603  1.00  0.00     0.214 A 
ATOM    507  N3    A A  22       4.487   5.024  33.914  1.00  0.00    -0.222 NA
ATOM    508  C5    A A  22       4.233   7.396  33.408  1.00  0.00     0.149 A 
ATOM    509  C2    A A  22       3.173   4.991  33.709  1.00  0.00     0.237 A 
ATOM    510  N1    A A  22       2.341   5.987  33.382  1.00  0.00    -0.222 NA
ATOM    511  C6    A A  22       2.850   7.227  33.221  1.00  0.00     0.155 A 
ATOM    512  N6    A A  22       2.021   8.219  32.895  1.00  0.00    -0.382 N 
ATOM    513  H61   A A  22       2.382   9.154  32.770  1.00  0.00     0.157 HD
ATOM    514  H62   A A  22       1.037   8.032  32.775  1.00  0.00     0.157 HD
ATOM    515  N7    A A  22       5.059   8.508  33.322  1.00  0.00    -0.236 NA
ATOM    516 'HO2   A A  22       9.405   3.780  33.097  1.00  0.00     0.210 HD
ATOM    517  C1'   C A  21       7.293  10.774  36.569  1.00  0.00     0.264 C 
ATOM    518  O2'   C A  21       9.610  10.231  36.305  1.00  0.00    -0.388 OA
ATOM    519  N1    C A  21       5.942  10.216  36.386  1.00  0.00    -0.278 N 
ATOM    520  O4'   C A  21       7.251  12.157  36.264  1.00  0.00    -0.353 OA
ATOM    521  C6    C A  21       4.985  10.907  35.695  1.00  0.00     0.102 A 
ATOM    522  C2    C A  21       5.650   8.961  36.929  1.00  0.00     0.352 A 
ATOM    523  C5    C A  21       3.756  10.403  35.522  1.00  0.00     0.067 A 
ATOM    524  C4    C A  21       3.490   9.123  36.087  1.00  0.00     0.128 A 
ATOM    525  N4    C A  21       2.286   8.567  35.949  1.00  0.00    -0.384 N 
ATOM    526  N3    C A  21       4.415   8.441  36.763  1.00  0.00    -0.177 NA
ATOM    527  H41   C A  21       1.558   9.050  35.444  1.00  0.00     0.157 HD
ATOM    528  H42   C A  21       2.112   7.658  36.352  1.00  0.00     0.157 HD
ATOM    529  O2    C A  21       6.535   8.356  37.551  1.00  0.00    -0.244 OA
ATOM    530 'HO2   C A  21      10.204  10.652  35.682  1.00  0.00     0.210 HD
BRANCH 499 531
ATOM    531  O5'   G A  23       8.296   4.375  29.837  1.00  0.00    -0.287 OA
BRANCH 531 532
ATOM    532  C5'   G A  23       7.873   3.905  28.559  1.00  0.00     0.216 C 
BRANCH 532 533
ATOM    533  C4'   G A  23       7.933   2.396  28.509  1.00  0.00     0.180 C 
ATOM    534  C3'   G A  23       6.624   1.696  28.173  1.00  0.00     0.198 C 
ATOM    535  C2'   G A  23       6.828   0.315  28.783  1.00  0.00     0.199 C 
ATOM    536  C1'   G A  23       7.601   0.663  30.056  1.00  0.00     0.262 C 
ATOM    537  N9    G A  23       6.750   0.817  31.231  1.00  0.00    -0.293 N 
ATOM    538  O4'   G A  23       8.277   1.887  29.826  1.00  0.00    -0.353 OA
ATOM    539  C4    G A  23       6.003  -0.168  31.830  1.00  0.00     0.187 A 
ATOM    540  C8    G A  23       6.531   1.963  31.955  1.00  0.00     0.214 A 
ATOM    541  N3    G A  23       5.926  -1.455  31.436  1.00  0.00    -0.044 NA
ATOM    542  C5    G A  23       5.371   0.446  32.890  1.00  0.00     0.173 A 
ATOM    543  C2    G A  23       5.123  -2.161  32.210  1.00  0.00     0.703 A 
ATOM    544  N2    G A  23       4.932  -3.459  31.957  1.00  0.00    -0.233 N 
ATOM    545  N1    G A  23       4.448  -1.649  33.287  1.00  0.00    -0.153 N 
ATOM    546  H21   G A  23       5.409  -3.879  31.172  1.00  0.00     0.174 HD
ATOM    547  H22   G A  23       4.315  -4.010  32.534  1.00  0.00     0.174 HD
ATOM    548  H1    G A  23       3.857  -2.272  33.815  1.00  0.00     0.187 HD
ATOM    549  C6    G A  23       4.511  -0.328  33.714  1.00  0.00     0.292 A 
ATOM    550  O6    G A  23       3.861   0.030  34.703  1.00  0.00    -0.265 OA
ATOM    551  N7    G A  23       5.713   1.790  32.957  1.00  0.00    -0.234 NA
BRANCH 534 552
ATOM    552  O3'   G A  23       6.401   1.643  26.767  1.00  0.00    -0.279 OA
BRANCH 552 553
ATOM    553  P     A A  24       4.926   1.332  26.203  1.00  0.00     0.408 P 
ATOM    554  OP1   A A  24       3.955   1.820  27.216  1.00  0.00    -0.624 OA
ATOM    555  OP2   A A  24       4.878  -0.085  25.764  1.00  0.00    -0.624 OA
BRANCH 553 556
ATOM    556  O5'   A A  24       4.802   2.258  24.912  1.00  0.00    -0.287 OA
BRANCH 556 557
ATOM    557  C5'   A A  24       4.199   1.773  23.714  1.00  0.00     0.216 C 
BRANCH 557 558
ATOM    558  C4'   A A  24       3.465   2.890  23.010  1.00  0.00     0.180 C 
ATOM    559  C3'   A A  24       3.210   4.135  23.849  1.00  0.00     0.198 C 
ATOM    560  O3'   A A  24       4.321   5.027  23.813  1.00  0.00    -0.279 OA
ATOM    561  C2'   A A  24       1.969   4.726  23.191  1.00  0.00     0.199 C 
ATOM    562  P     T A  25       4.616   5.985  25.073  1.00  0.00     0.408 P 
ATOM    563  OP1   T A  25       5.754   6.864  24.703  1.00  0.00    -0.624 OA
ATOM    564  O5'   T A  25       3.306   6.885  25.189  1.00  0.00    -0.287 OA
ATOM    565  OP2   T A  25       4.706   5.142  26.292  1.00  0.00    -0.624 OA
ATOM    566  C5'   T A  25       2.975   7.837  24.179  1.00  0.00     0.216 C 
ATOM    567  C4'   T A  25       1.741   8.613  24.577  1.00  0.00     0.180 C 
ATOM    568  C3'   T A  25       1.714   9.102  26.018  1.00  0.00     0.198 C 
ATOM    569  O4'   T A  25       0.583   7.742  24.465  1.00  0.00    -0.353 OA
ATOM    570  O3'   T A  25       2.383  10.352  26.157  1.00  0.00    -0.279 OA
ATOM    571  C2'   T A  25       0.220   9.208  26.305  1.00  0.00     0.199 C 
ATOM    572  P     C A  26       2.853  10.849  27.613  1.00  0.00     0.408 P 
ATOM    573  OP1   C A  26       3.691  12.059  27.420  1.00  0.00    -0.624 OA
ATOM    574  O5'   C A  26       1.498  11.296  28.323  1.00  0.00    -0.287 OA
ATOM    575  OP2   C A  26       3.406   9.683  28.351  1.00  0.00    -0.624 OA
ATOM    576  C5'   C A  26       1.324  11.155  29.732  1.00  0.00     0.216 C 
ATOM    577  C4'   C A  26      -0.127  11.347  30.100  1.00  0.00     0.180 C 
ATOM    578  C3'   C A  26      -0.448  11.148  31.577  1.00  0.00     0.198 C 
ATOM    579  O4'   C A  26      -0.924  10.352  29.399  1.00  0.00    -0.353 OA
ATOM    580  O3'   C A  26      -0.322  12.368  32.304  1.00  0.00    -0.279 OA
ATOM    581  C2'   C A  26      -1.881  10.635  31.544  1.00  0.00     0.199 C 
ATOM    582  P     A A  27       0.805  12.511  33.443  1.00  0.00     0.408 P 
ATOM    583  OP1   A A  27       1.222  13.936  33.470  1.00  0.00    -0.624 OA
ATOM    584  OP2   A A  27       1.828  11.452  33.246  1.00  0.00    -0.624 OA
ATOM    585  O5'   A A  27       0.023  12.202  34.795  1.00  0.00    -0.287 OA
ATOM    586  C5'   A A  27      -1.196  12.876  35.108  1.00  0.00     0.216 C 
ATOM    587  C4'   A A  27      -1.896  12.186  36.255  1.00  0.00     0.180 C 
ATOM    588  C3'   A A  27      -0.988  11.491  37.261  1.00  0.00     0.198 C 
ATOM    589  O4'   A A  27      -2.730  11.117  35.724  1.00  0.00    -0.353 OA
ATOM    590  C2'   A A  27      -1.909  10.422  37.833  1.00  0.00     0.199 C 
ATOM    591  O2'   A A  27      -2.847  10.978  38.735  1.00  0.00    -0.388 OA
ATOM    592  C1'   A A  27      -2.646   9.982  36.570  1.00  0.00     0.262 C 
ATOM    593 'HO2   A A  27      -2.404  11.701  39.181  1.00  0.00     0.210 HD
ATOM    594  N9    A A  27      -1.969   8.910  35.841  1.00  0.00    -0.294 N 
ATOM    595  C4    A A  27      -2.033   7.567  36.125  1.00  0.00     0.167 A 
ATOM    596  C8    A A  27      -1.142   9.024  34.750  1.00  0.00     0.214 A 
ATOM    597  N3    A A  27      -2.727   6.976  37.112  1.00  0.00    -0.222 NA
ATOM    598  C5    A A  27      -1.234   6.944  35.184  1.00  0.00     0.149 A 
ATOM    599  C2    A A  27      -2.550   5.658  37.085  1.00  0.00     0.237 A 
ATOM    600  N1    A A  27      -1.815   4.918  36.244  1.00  0.00    -0.222 NA
ATOM    601  C6    A A  27      -1.131   5.544  35.262  1.00  0.00     0.155 A 
ATOM    602  N6    A A  27      -0.399   4.805  34.427  1.00  0.00    -0.382 N 
ATOM    603  H61   A A  27       0.120   5.251  33.684  1.00  0.00     0.157 HD
ATOM    604  H62   A A  27      -0.367   3.801  34.537  1.00  0.00     0.157 HD
ATOM    605  N7    A A  27      -0.677   7.876  34.319  1.00  0.00    -0.236 NA
ATOM    606  O2'   C A  26      -2.800  11.692  31.341  1.00  0.00    -0.388 OA
ATOM    607  C1'   C A  26      -1.851   9.761  30.292  1.00  0.00     0.264 C 
ATOM    608 'HO2   C A  26      -2.350  12.499  31.595  1.00  0.00     0.210 HD
ATOM    609  N1    C A  26      -1.434   8.370  30.539  1.00  0.00    -0.278 N 
ATOM    610  C6    C A  26      -0.282   7.877  29.993  1.00  0.00     0.102 A 
ATOM    611  C2    C A  26      -2.238   7.556  31.342  1.00  0.00     0.352 A 
ATOM    612  C5    C A  26       0.100   6.612  30.209  1.00  0.00     0.067 A 
ATOM    613  C4    C A  26      -0.739   5.805  31.030  1.00  0.00     0.128 A 
ATOM    614  N4    C A  26      -0.412   4.539  31.279  1.00  0.00    -0.384 N 
ATOM    615  N3    C A  26      -1.864   6.277  31.570  1.00  0.00    -0.177 NA
ATOM    616  H41   C A  26       0.431   4.143  30.890  1.00  0.00     0.157 HD
ATOM    617  H42   C A  26      -1.015   3.970  31.858  1.00  0.00     0.157 HD
ATOM    618  O2    C A  26      -3.275   8.026  31.829  1.00  0.00    -0.244 OA
ATOM    619  C1'   T A  25      -0.322   8.011  25.522  1.00  0.00     0.264 C 
ATOM    620  O2'   T A  25      -0.326  10.392  25.757  1.00  0.00    -0.388 OA
ATOM    621  N1    T A  25      -0.467   6.792  26.330  1.00  0.00    -0.280 N 
ATOM    622  C6    T A  25       0.540   5.856  26.400  1.00  0.00     0.104 A 
ATOM    623  C2    T A  25      -1.653   6.614  27.019  1.00  0.00     0.331 A 
ATOM    624  C5    T A  25       0.430   4.738  27.125  1.00  0.00     0.092 A 
ATOM    625  C4    T A  25      -0.766   4.484  27.865  1.00  0.00     0.250 A 
ATOM    626  N3    T A  25      -1.729   5.458  27.751  1.00  0.00    -0.275 N 
ATOM    627  O4    T A  25      -0.981   3.503  28.578  1.00  0.00    -0.268 OA
ATOM    628  H3    T A  25      -2.593   5.304  28.251  1.00  0.00     0.173 HD
ATOM    629  O2    T A  25      -2.566   7.418  26.984  1.00  0.00    -0.246 OA
ATOM    630 'HO2   T A  25       0.295  11.097  25.944  1.00  0.00     0.210 HD
ATOM    631  C1'   A A  24       1.192   3.458  22.839  1.00  0.00     0.262 C 
ATOM    632  O4'   A A  24       2.138   2.422  22.639  1.00  0.00    -0.353 OA
BRANCH 588 633
ATOM    633  O3'   A A  27      -0.507  12.392  38.254  1.00  0.00    -0.279 OA
BRANCH 633 634
ATOM    634  P     G A  28       1.013  12.277  38.765  1.00  0.00     0.408 P 
ATOM    635  OP2   G A  28       1.053  11.370  39.942  1.00  0.00    -0.624 OA
ATOM    636  OP1   G A  28       1.854  11.973  37.579  1.00  0.00    -0.624 OA
BRANCH 634 637
ATOM    637  O5'   G A  28       1.368  13.751  39.255  1.00  0.00    -0.287 OA
BRANCH 637 638
ATOM    638  C5'   G A  28       2.369  13.972  40.247  1.00  0.00     0.216 C 
BRANCH 638 639
ATOM    639  C4'   G A  28       1.767  14.638  41.464  1.00  0.00     0.180 C 
ATOM    640  C3'   G A  28       1.851  13.850  42.761  1.00  0.00     0.198 C 
ATOM    641  C2'   G A  28       0.747  14.488  43.600  1.00  0.00     0.199 C 
ATOM    642  O2'   G A  28       1.188  15.703  44.174  1.00  0.00    -0.388 OA
ATOM    643  C1'   G A  28      -0.306  14.803  42.534  1.00  0.00     0.262 C 
ATOM    644 'HO2   G A  28       2.141  15.720  44.082  1.00  0.00     0.210 HD
ATOM    645  O4'   G A  28       0.340  14.810  41.273  1.00  0.00    -0.353 OA
ATOM    646  N9    G A  28      -1.401  13.838  42.491  1.00  0.00    -0.293 N 
ATOM    647  C8    G A  28      -1.705  12.971  41.470  1.00  0.00     0.214 A 
ATOM    648  C4    G A  28      -2.333  13.619  43.475  1.00  0.00     0.187 A 
ATOM    649  N7    G A  28      -2.748  12.227  41.720  1.00  0.00    -0.234 NA
ATOM    650  C5    G A  28      -3.156  12.626  42.987  1.00  0.00     0.173 A 
ATOM    651  C6    G A  28      -4.235  12.175  43.792  1.00  0.00     0.292 A 
ATOM    652  O6    G A  28      -5.076  11.304  43.539  1.00  0.00    -0.265 OA
ATOM    653  N1    G A  28      -4.284  12.849  45.006  1.00  0.00    -0.153 N 
ATOM    654  C2    G A  28      -3.409  13.830  45.398  1.00  0.00     0.703 A 
ATOM    655  H1    G A  28      -5.020  12.595  45.647  1.00  0.00     0.187 HD
ATOM    656  N3    G A  28      -2.401  14.260  44.662  1.00  0.00    -0.044 NA
ATOM    657  N2    G A  28      -3.620  14.358  46.606  1.00  0.00    -0.233 N 
ATOM    658  H21   G A  28      -3.003  15.082  46.941  1.00  0.00     0.174 HD
ATOM    659  H22   G A  28      -4.388  14.037  47.179  1.00  0.00     0.174 HD
BRANCH 640 660
ATOM    660  O3'   G A  28       3.136  13.973  43.367  1.00  0.00    -0.279 OA
BRANCH 660 661
ATOM    661  P     A A  29       3.994  12.652  43.698  1.00  0.00     0.408 P 
ATOM    662  OP2   A A  29       4.385  12.012  42.416  1.00  0.00    -0.624 OA
ATOM    663  OP1   A A  29       5.045  13.046  44.670  1.00  0.00    -0.624 OA
BRANCH 661 664
ATOM    664  O5'   A A  29       2.961  11.696  44.444  1.00  0.00    -0.287 OA
BRANCH 664 665
ATOM    665  C5'   A A  29       2.399  10.563  43.783  1.00  0.00     0.216 C 
BRANCH 665 666
ATOM    666  C4'   A A  29       3.031   9.290  44.297  1.00  0.00     0.180 C 
ATOM    667  O4'   A A  29       2.003   8.443  44.871  1.00  0.00    -0.353 OA
ATOM    668  C1'   A A  29       2.347   7.082  44.678  1.00  0.00     0.262 C 
ATOM    669  N9    A A  29       1.241   6.423  43.980  1.00  0.00    -0.294 N 
ATOM    670  C2'   A A  29       3.673   7.036  43.915  1.00  0.00     0.199 C 
ATOM    671  C8    A A  29       0.287   7.000  43.177  1.00  0.00     0.214 A 
ATOM    672  C4    A A  29       0.951   5.081  44.004  1.00  0.00     0.167 A 
ATOM    673  N7    A A  29      -0.581   6.144  42.693  1.00  0.00    -0.236 NA
ATOM    674  C5    A A  29      -0.171   4.923  43.210  1.00  0.00     0.149 A 
ATOM    675  C6    A A  29      -0.674   3.617  43.072  1.00  0.00     0.155 A 
ATOM    676  N6    A A  29      -1.748   3.309  42.342  1.00  0.00    -0.382 N 
ATOM    677  N1    A A  29      -0.029   2.622  43.718  1.00  0.00    -0.222 NA
ATOM    678  H62   A A  29      -2.062   2.350  42.282  1.00  0.00     0.157 HD
ATOM    679  H61   A A  29      -2.247   4.038  41.851  1.00  0.00     0.157 HD
ATOM    680  C2    A A  29       1.048   2.929  44.454  1.00  0.00     0.237 A 
ATOM    681  N3    A A  29       1.616   4.115  44.662  1.00  0.00    -0.222 NA
ATOM    682  O2'   A A  29       4.727   6.916  44.852  1.00  0.00    -0.388 OA
ATOM    683  C3'   A A  29       3.688   8.407  43.247  1.00  0.00     0.198 C 
ATOM    684 'HO2   A A  29       5.406   7.531  44.578  1.00  0.00     0.210 HD
ATOM    685  O3'   A A  29       5.007   8.851  42.944  1.00  0.00    -0.279 OA
ATOM    686  P     A A  30       5.641   8.551  41.495  1.00  0.00     0.408 P 
ATOM    687  O5'   A A  30       6.044   7.010  41.562  1.00  0.00    -0.287 OA
ATOM    688  OP2   A A  30       4.579   8.711  40.469  1.00  0.00    -0.624 OA
ATOM    689  OP1   A A  30       6.883   9.359  41.397  1.00  0.00    -0.624 OA
ATOM    690  C5'   A A  30       7.007   6.543  42.505  1.00  0.00     0.216 C 
ATOM    691  C4'   A A  30       7.079   5.034  42.475  1.00  0.00     0.180 C 
ATOM    692  C3'   A A  30       7.215   4.404  41.098  1.00  0.00     0.198 C 
ATOM    693  O4'   A A  30       5.836   4.486  42.979  1.00  0.00    -0.353 OA
ATOM    694  O3'   A A  30       8.569   4.417  40.650  1.00  0.00    -0.279 OA
ATOM    695  C2'   A A  30       6.690   2.989  41.327  1.00  0.00     0.199 C 
ATOM    696  P     G A  31       8.902   4.175  39.095  1.00  0.00     0.408 P 
ATOM    697  O5'   G A  31       8.689   2.607  38.899  1.00  0.00    -0.287 OA
ATOM    698  OP1   G A  31      10.346   4.469  38.913  1.00  0.00    -0.624 OA
ATOM    699  OP2   G A  31       7.897   4.903  38.275  1.00  0.00    -0.624 OA
ATOM    700  C5'   G A  31       7.552   2.092  38.204  1.00  0.00     0.216 C 
ATOM    701  C4'   G A  31       7.910   1.783  36.767  1.00  0.00     0.180 C 
ATOM    702  O4'   G A  31       9.075   2.574  36.396  1.00  0.00    -0.353 OA
ATOM    703  C3'   G A  31       8.299   0.333  36.492  1.00  0.00     0.198 C 
ATOM    704  C1'   G A  31      10.021   1.755  35.737  1.00  0.00     0.262 C 
ATOM    705  C2'   G A  31       9.306   0.462  35.353  1.00  0.00     0.199 C 
ATOM    706  N9    G A  31      11.164   1.569  36.628  1.00  0.00    -0.293 N 
ATOM    707  O2'   G A  31       8.655   0.654  34.112  1.00  0.00    -0.388 OA
ATOM    708 'HO2   G A  31       7.717   0.531  34.269  1.00  0.00     0.210 HD
ATOM    709  C4    G A  31      11.623   0.379  37.143  1.00  0.00     0.187 A 
ATOM    710  C8    G A  31      11.995   2.546  37.118  1.00  0.00     0.214 A 
ATOM    711  N3    G A  31      11.092  -0.840  36.914  1.00  0.00    -0.044 NA
ATOM    712  C5    G A  31      12.714   0.711  37.917  1.00  0.00     0.173 A 
ATOM    713  C2    G A  31      11.754  -1.792  37.545  1.00  0.00     0.703 A 
ATOM    714  N2    G A  31      11.357  -3.063  37.427  1.00  0.00    -0.233 N 
ATOM    715  N1    G A  31      12.850  -1.570  38.338  1.00  0.00    -0.153 N 
ATOM    716  H22   G A  31      11.851  -3.804  37.899  1.00  0.00     0.174 HD
ATOM    717  H21   G A  31      10.553  -3.269  36.852  1.00  0.00     0.174 HD
ATOM    718  C6    G A  31      13.414  -0.326  38.590  1.00  0.00     0.292 A 
ATOM    719  H1    G A  31      13.287  -2.367  38.774  1.00  0.00     0.187 HD
ATOM    720  O6    G A  31      14.404  -0.238  39.326  1.00  0.00    -0.265 OA
ATOM    721  N7    G A  31      12.936   2.081  37.893  1.00  0.00    -0.234 NA
ATOM    722  O2'   A A  30       7.688   2.156  41.890  1.00  0.00    -0.388 OA
ATOM    723  C1'   A A  30       5.604   3.223  42.382  1.00  0.00     0.262 C 
ATOM    724 'HO2   A A  30       8.528   2.461  41.548  1.00  0.00     0.210 HD
ATOM    725  N9    A A  30       4.250   3.212  41.832  1.00  0.00    -0.294 N 
ATOM    726  C8    A A  30       3.568   4.247  41.238  1.00  0.00     0.214 A 
ATOM    727  C4    A A  30       3.395   2.137  41.803  1.00  0.00     0.167 A 
ATOM    728  N7    A A  30       2.365   3.922  40.832  1.00  0.00    -0.236 NA
ATOM    729  C5    A A  30       2.243   2.585  41.184  1.00  0.00     0.149 A 
ATOM    730  C6    A A  30       1.201   1.653  41.025  1.00  0.00     0.155 A 
ATOM    731  N6    A A  30       0.035   1.936  40.445  1.00  0.00    -0.382 N 
ATOM    732  N1    A A  30       1.402   0.401  41.490  1.00  0.00    -0.222 NA
ATOM    733  H61   A A  30      -0.137   2.865  40.089  1.00  0.00     0.157 HD
ATOM    734  H62   A A  30      -0.675   1.221  40.352  1.00  0.00     0.157 HD
ATOM    735  C2    A A  30       2.574   0.114  42.072  1.00  0.00     0.237 A 
ATOM    736  N3    A A  30       3.628   0.900  42.276  1.00  0.00    -0.222 NA
BRANCH 703 737
ATOM    737  O3'   G A  31       7.162  -0.447  36.129  1.00  0.00    -0.279 OA
BRANCH 737 738
ATOM    738  P     G A  32       6.543  -1.503  37.175  1.00  0.00     0.408 P 
ATOM    739  OP2   G A  32       7.468  -1.588  38.333  1.00  0.00    -0.624 OA
ATOM    740  OP1   G A  32       5.115  -1.155  37.402  1.00  0.00    -0.624 OA
BRANCH 738 741
ATOM    741  O5'   G A  32       6.602  -2.895  36.399  1.00  0.00    -0.287 OA
BRANCH 741 742
ATOM    742  C5'   G A  32       5.611  -3.901  36.609  1.00  0.00     0.216 C 
BRANCH 742 743
ATOM    743  C4'   G A  32       4.714  -4.011  35.398  1.00  0.00     0.180 C 
ATOM    744  C3'   G A  32       3.219  -4.006  35.692  1.00  0.00     0.198 C 
ATOM    745  C2'   G A  32       2.645  -4.841  34.554  1.00  0.00     0.199 C 
ATOM    746  O3'   G A  32       2.695  -2.681  35.704  1.00  0.00    -0.279 OA
ATOM    747  O2'   G A  32       2.536  -4.079  33.367  1.00  0.00    -0.388 OA
ATOM    748  C1'   G A  32       3.745  -5.885  34.368  1.00  0.00     0.262 C 
ATOM    749 'HO2   G A  32       2.437  -3.165  33.637  1.00  0.00     0.210 HD
ATOM    750  N9    G A  32       3.558  -7.091  35.168  1.00  0.00    -0.293 N 
ATOM    751  O4'   G A  32       4.969  -5.287  34.748  1.00  0.00    -0.353 OA
ATOM    752  C4    G A  32       2.513  -7.978  35.075  1.00  0.00     0.187 A 
ATOM    753  C8    G A  32       4.382  -7.568  36.158  1.00  0.00     0.214 A 
ATOM    754  C5    G A  32       2.769  -8.948  36.020  1.00  0.00     0.173 A 
ATOM    755  N3    G A  32       1.470  -7.887  34.222  1.00  0.00    -0.044 NA
ATOM    756  N7    G A  32       3.952  -8.677  36.695  1.00  0.00    -0.234 NA
ATOM    757  C6    G A  32       1.852 -10.020  36.165  1.00  0.00     0.292 A 
ATOM    758  N1    G A  32       0.789  -9.905  35.277  1.00  0.00    -0.153 N 
ATOM    759  O6    G A  32       1.899 -10.976  36.946  1.00  0.00    -0.265 OA
ATOM    760  H1    G A  32       0.084 -10.626  35.305  1.00  0.00     0.187 HD
ATOM    761  C2    G A  32       0.627  -8.892  34.368  1.00  0.00     0.703 A 
ATOM    762  N2    G A  32      -0.463  -8.957  33.600  1.00  0.00    -0.233 N 
ATOM    763  H21   G A  32      -0.628  -8.234  32.916  1.00  0.00     0.174 HD
ATOM    764  H22   G A  32      -1.115  -9.723  33.702  1.00  0.00     0.174 HD
ATOM    765  P     C A  33       1.496  -2.301  36.708  1.00  0.00     0.408 P 
ATOM    766  O5'   C A  33       0.289  -3.232  36.242  1.00  0.00    -0.287 OA
ATOM    767  OP2   C A  33       1.894  -2.707  38.079  1.00  0.00    -0.624 OA
ATOM    768  OP1   C A  33       1.128  -0.887  36.440  1.00  0.00    -0.624 OA
ATOM    769  C5'   C A  33      -0.512  -2.885  35.113  1.00  0.00     0.216 C 
ATOM    770  C4'   C A  33      -1.592  -3.920  34.897  1.00  0.00     0.180 C 
ATOM    771  C3'   C A  33      -2.595  -4.078  36.031  1.00  0.00     0.198 C 
ATOM    772  O4'   C A  33      -0.979  -5.230  34.785  1.00  0.00    -0.353 OA
ATOM    773  O3'   C A  33      -3.632  -3.104  35.948  1.00  0.00    -0.279 OA
ATOM    774  C2'   C A  33      -3.109  -5.498  35.820  1.00  0.00     0.199 C 
ATOM    775  P     T A  34      -4.564  -2.812  37.228  1.00  0.00     0.408 P 
ATOM    776  OP2   T A  34      -3.707  -2.314  38.335  1.00  0.00    -0.624 OA
ATOM    777  OP1   T A  34      -5.707  -1.987  36.758  1.00  0.00    -0.624 OA
ATOM    778  O5'   T A  34      -5.123  -4.247  37.640  1.00  0.00    -0.287 OA
ATOM    779  C5'   T A  34      -6.106  -4.910  36.845  1.00  0.00     0.216 C 
ATOM    780  C4'   T A  34      -6.680  -6.088  37.598  1.00  0.00     0.180 C 
ATOM    781  C3'   T A  34      -7.035  -5.831  39.054  1.00  0.00     0.198 C 
ATOM    782  O4'   T A  34      -5.688  -7.146  37.660  1.00  0.00    -0.353 OA
ATOM    783  C2'   T A  34      -6.989  -7.232  39.655  1.00  0.00     0.199 C 
ATOM    784  O3'   T A  34      -8.320  -5.226  39.177  1.00  0.00    -0.279 OA
ATOM    785  O2'   T A  34      -8.176  -7.946  39.365  1.00  0.00    -0.388 OA
ATOM    786  C1'   T A  34      -5.831  -7.861  38.874  1.00  0.00     0.264 C 
ATOM    787 'HO2   T A  34      -8.812  -7.293  39.070  1.00  0.00     0.210 HD
ATOM    788  N1    T A  34      -4.546  -7.821  39.587  1.00  0.00    -0.280 N 
ATOM    789  C2    T A  34      -4.069  -9.003  40.126  1.00  0.00     0.331 A 
ATOM    790  C6    T A  34      -3.838  -6.646  39.718  1.00  0.00     0.104 A 
ATOM    791  N3    T A  34      -2.870  -8.899  40.783  1.00  0.00    -0.275 N 
ATOM    792  O2    T A  34      -4.661 -10.063  40.027  1.00  0.00    -0.246 OA
ATOM    793  H3    T A  34      -2.508  -9.747  41.191  1.00  0.00     0.173 HD
ATOM    794  C4    T A  34      -2.113  -7.762  40.952  1.00  0.00     0.250 A 
ATOM    795  C5    T A  34      -2.671  -6.583  40.366  1.00  0.00     0.092 A 
ATOM    796  O4    T A  34      -1.050  -7.831  41.569  1.00  0.00    -0.268 OA
ATOM    797  P     G A  35      -8.466  -3.799  39.903  1.00  0.00     0.408 P 
ATOM    798  OP1   G A  35      -9.863  -3.341  39.689  1.00  0.00    -0.624 OA
ATOM    799  O5'   G A  35      -8.283  -4.133  41.451  1.00  0.00    -0.287 OA
ATOM    800  OP2   G A  35      -7.337  -2.931  39.476  1.00  0.00    -0.624 OA
ATOM    801  C5'   G A  35      -8.913  -5.272  42.037  1.00  0.00     0.216 C 
ATOM    802  C4'   G A  35      -8.567  -5.364  43.506  1.00  0.00     0.180 C 
ATOM    803  C3'   G A  35      -8.351  -4.031  44.212  1.00  0.00     0.198 C 
ATOM    804  O4'   G A  35      -7.302  -6.068  43.648  1.00  0.00    -0.353 OA
ATOM    805  O3'   G A  35      -9.575  -3.493  44.702  1.00  0.00    -0.279 OA
ATOM    806  C2'   G A  35      -7.385  -4.405  45.327  1.00  0.00     0.199 C 
ATOM    807  P     C A  36      -9.990  -1.988  44.320  1.00  0.00     0.408 P 
ATOM    808  OP1   C A  36     -11.233  -1.671  45.067  1.00  0.00    -0.624 OA
ATOM    809  O5'   C A  36      -8.810  -1.103  44.923  1.00  0.00    -0.287 OA
ATOM    810  OP2   C A  36      -9.968  -1.853  42.842  1.00  0.00    -0.624 OA
ATOM    811  C5'   C A  36      -8.480  -1.163  46.310  1.00  0.00     0.216 C 
ATOM    812  C4'   C A  36      -7.506  -0.066  46.662  1.00  0.00     0.180 C 
ATOM    813  C3'   C A  36      -7.697   1.247  45.918  1.00  0.00     0.198 C 
ATOM    814  O4'   C A  36      -6.164  -0.489  46.299  1.00  0.00    -0.353 OA
ATOM    815  O3'   C A  36      -8.689   2.063  46.537  1.00  0.00    -0.279 OA
ATOM    816  C2'   C A  36      -6.307   1.864  45.987  1.00  0.00     0.199 C 
ATOM    817  P     G A  37      -9.492   3.148  45.662  1.00  0.00     0.408 P 
ATOM    818  O5'   G A  37      -8.437   4.323  45.442  1.00  0.00    -0.287 OA
ATOM    819  OP2   G A  37      -9.805   2.552  44.337  1.00  0.00    -0.624 OA
ATOM    820  OP1   G A  37     -10.593   3.669  46.510  1.00  0.00    -0.624 OA
ATOM    821  C5'   G A  37      -7.908   5.056  46.548  1.00  0.00     0.216 C 
ATOM    822  C4'   G A  37      -7.345   6.376  46.078  1.00  0.00     0.180 C 
ATOM    823  C3'   G A  37      -8.033   6.985  44.863  1.00  0.00     0.198 C 
ATOM    824  O4'   G A  37      -5.963   6.173  45.669  1.00  0.00    -0.353 OA
ATOM    825  O3'   G A  37      -9.127   7.815  45.241  1.00  0.00    -0.279 OA
ATOM    826  C2'   G A  37      -6.906   7.770  44.204  1.00  0.00     0.199 C 
ATOM    827  P     T A  38     -10.329   8.075  44.204  1.00  0.00     0.408 P 
ATOM    828  OP2   T A  38     -10.778   6.766  43.665  1.00  0.00    -0.624 OA
ATOM    829  OP1   T A  38     -11.309   8.966  44.877  1.00  0.00    -0.624 OA
ATOM    830  O5'   T A  38      -9.645   8.893  43.019  1.00  0.00    -0.287 OA
ATOM    831  C5'   T A  38      -9.120  10.201  43.239  1.00  0.00     0.216 C 
ATOM    832  C4'   T A  38      -8.488  10.729  41.972  1.00  0.00     0.180 C 
ATOM    833  C3'   T A  38      -9.341  10.620  40.718  1.00  0.00     0.198 C 
ATOM    834  O4'   T A  38      -7.304   9.943  41.668  1.00  0.00    -0.353 OA
ATOM    835  O3'   T A  38     -10.252  11.710  40.604  1.00  0.00    -0.279 OA
ATOM    836  C2'   T A  38      -8.289  10.620  39.614  1.00  0.00     0.199 C 
ATOM    837  P     G A  39     -11.613  11.530  39.766  1.00  0.00     0.408 P 
ATOM    838  O5'   G A  39     -11.114  11.223  38.284  1.00  0.00    -0.287 OA
ATOM    839  OP2   G A  39     -12.324  10.331  40.279  1.00  0.00    -0.624 OA
ATOM    840  OP1   G A  39     -12.303  12.845  39.760  1.00  0.00    -0.624 OA
ATOM    841  C5'   G A  39     -10.345  12.180  37.556  1.00  0.00     0.216 C 
ATOM    842  C4'   G A  39      -9.932  11.612  36.219  1.00  0.00     0.180 C 
ATOM    843  O4'   G A  39      -8.933  10.578  36.417  1.00  0.00    -0.353 OA
ATOM    844  C3'   G A  39     -11.020  10.896  35.435  1.00  0.00     0.198 C 
ATOM    845  C1'   G A  39      -9.022   9.634  35.362  1.00  0.00     0.262 C 
ATOM    846  N9    G A  39      -9.152   8.300  35.943  1.00  0.00    -0.293 N 
ATOM    847  C2'   G A  39     -10.209  10.029  34.479  1.00  0.00     0.199 C 
ATOM    848  C4    G A  39      -8.872   7.109  35.318  1.00  0.00     0.187 A 
ATOM    849  C8    G A  39      -9.578   7.981  37.209  1.00  0.00     0.214 A 
ATOM    850  N3    G A  39      -8.423   6.963  34.053  1.00  0.00    -0.044 NA
ATOM    851  C5    G A  39      -9.150   6.132  36.250  1.00  0.00     0.173 A 
ATOM    852  C2    G A  39      -8.251   5.693  33.735  1.00  0.00     0.703 A 
ATOM    853  N1    G A  39      -8.498   4.647  34.587  1.00  0.00    -0.153 N 
ATOM    854  N2    G A  39      -7.809   5.370  32.518  1.00  0.00    -0.233 N 
ATOM    855  C6    G A  39      -8.959   4.771  35.892  1.00  0.00     0.292 A 
ATOM    856  H1    G A  39      -8.333   3.714  34.239  1.00  0.00     0.187 HD
ATOM    857  O6    G A  39      -9.151   3.758  36.574  1.00  0.00    -0.265 OA
ATOM    858  H22   G A  39      -7.680   4.401  32.258  1.00  0.00     0.174 HD
ATOM    859  H21   G A  39      -7.611   6.104  31.853  1.00  0.00     0.174 HD
ATOM    860  N7    G A  39      -9.594   6.696  37.439  1.00  0.00    -0.234 NA
ATOM    861  C1'   T A  38      -7.183   9.788  40.263  1.00  0.00     0.264 C 
ATOM    862  O2'   T A  38      -7.797  11.926  39.382  1.00  0.00    -0.388 OA
ATOM    863  N1    T A  38      -7.253   8.355  39.945  1.00  0.00    -0.280 N 
ATOM    864  C6    T A  38      -7.953   7.476  40.743  1.00  0.00     0.104 A 
ATOM    865  C2    T A  38      -6.590   7.913  38.814  1.00  0.00     0.331 A 
ATOM    866  C5    T A  38      -8.026   6.169  40.474  1.00  0.00     0.092 A 
ATOM    867  C4    T A  38      -7.367   5.637  39.324  1.00  0.00     0.250 A 
ATOM    868  N3    T A  38      -6.691   6.569  38.569  1.00  0.00    -0.275 N 
ATOM    869  O4    T A  38      -7.345   4.455  38.982  1.00  0.00    -0.268 OA
ATOM    870  H3    T A  38      -6.232   6.227  37.738  1.00  0.00     0.173 HD
ATOM    871  O2    T A  38      -5.958   8.656  38.084  1.00  0.00    -0.246 OA
ATOM    872 'HO2   T A  38      -8.377  12.524  39.856  1.00  0.00     0.210 HD
ATOM    873  O2'   G A  37      -6.661   8.986  44.887  1.00  0.00    -0.388 OA
ATOM    874  C1'   G A  37      -5.728   6.828  44.436  1.00  0.00     0.262 C 
ATOM    875 'HO2   G A  37      -7.429   9.154  45.433  1.00  0.00     0.210 HD
ATOM    876  N9    G A  37      -5.569   5.812  43.400  1.00  0.00    -0.293 N 
ATOM    877  C8    G A  37      -6.089   4.542  43.402  1.00  0.00     0.214 A 
ATOM    878  C4    G A  37      -4.862   5.938  42.229  1.00  0.00     0.187 A 
ATOM    879  N7    G A  37      -5.767   3.851  42.343  1.00  0.00    -0.234 NA
ATOM    880  C5    G A  37      -4.990   4.722  41.590  1.00  0.00     0.173 A 
ATOM    881  C6    G A  37      -4.355   4.540  40.335  1.00  0.00     0.292 A 
ATOM    882  O6    G A  37      -4.350   3.537  39.610  1.00  0.00    -0.265 OA
ATOM    883  N1    G A  37      -3.669   5.681  39.938  1.00  0.00    -0.153 N 
ATOM    884  C2    G A  37      -3.604   6.849  40.654  1.00  0.00     0.703 A 
ATOM    885  H1    G A  37      -3.181   5.645  39.057  1.00  0.00     0.187 HD
ATOM    886  N3    G A  37      -4.192   7.035  41.822  1.00  0.00    -0.044 NA
ATOM    887  N2    G A  37      -2.894   7.838  40.105  1.00  0.00    -0.233 N 
ATOM    888  H21   G A  37      -2.814   8.718  40.590  1.00  0.00     0.174 HD
ATOM    889  H22   G A  37      -2.440   7.705  39.211  1.00  0.00     0.174 HD
ATOM    890  O2'   C A  36      -6.064   2.434  47.259  1.00  0.00    -0.388 OA
ATOM    891  C1'   C A  36      -5.425   0.625  45.826  1.00  0.00     0.264 C 
ATOM    892 'HO2   C A  36      -6.919   2.675  47.616  1.00  0.00     0.210 HD
ATOM    893  N1    C A  36      -5.023   0.367  44.433  1.00  0.00    -0.278 N 
ATOM    894  C6    C A  36      -5.563  -0.670  43.721  1.00  0.00     0.102 A 
ATOM    895  C2    C A  36      -4.074   1.204  43.843  1.00  0.00     0.352 A 
ATOM    896  C5    C A  36      -5.199  -0.902  42.452  1.00  0.00     0.067 A 
ATOM    897  C4    C A  36      -4.231  -0.026  41.878  1.00  0.00     0.128 A 
ATOM    898  N4    C A  36      -3.828  -0.203  40.620  1.00  0.00    -0.384 N 
ATOM    899  N3    C A  36      -3.700   0.986  42.563  1.00  0.00    -0.177 NA
ATOM    900  H41   C A  36      -4.204  -0.957  40.064  1.00  0.00     0.157 HD
ATOM    901  H42   C A  36      -3.139   0.422  40.225  1.00  0.00     0.157 HD
ATOM    902  O2    C A  36      -3.597   2.130  44.510  1.00  0.00    -0.244 OA
ATOM    903  C1'   G A  35      -6.489  -5.406  44.600  1.00  0.00     0.262 C 
ATOM    904  O2'   G A  35      -8.053  -5.064  46.385  1.00  0.00    -0.388 OA
ATOM    905  N9    G A  35      -5.371  -4.782  43.900  1.00  0.00    -0.293 N 
ATOM    906  C4    G A  35      -4.531  -3.816  44.398  1.00  0.00     0.187 A 
ATOM    907  C8    G A  35      -4.951  -5.034  42.616  1.00  0.00     0.214 A 
ATOM    908  C5    G A  35      -3.649  -3.535  43.376  1.00  0.00     0.173 A 
ATOM    909  N3    G A  35      -4.590  -3.276  45.633  1.00  0.00    -0.044 NA
ATOM    910  N7    G A  35      -3.925  -4.311  42.259  1.00  0.00    -0.234 NA
ATOM    911  C6    G A  35      -2.643  -2.555  43.593  1.00  0.00     0.292 A 
ATOM    912  N1    G A  35      -2.723  -2.016  44.872  1.00  0.00    -0.153 N 
ATOM    913  O6    G A  35      -1.769  -2.161  42.815  1.00  0.00    -0.265 OA
ATOM    914  C2    G A  35      -3.649  -2.368  45.820  1.00  0.00     0.703 A 
ATOM    915  H1    G A  35      -2.046  -1.312  45.116  1.00  0.00     0.187 HD
ATOM    916  N2    G A  35      -3.565  -1.733  46.990  1.00  0.00    -0.233 N 
ATOM    917  H21   G A  35      -4.228  -1.960  47.718  1.00  0.00     0.174 HD
ATOM    918  H22   G A  35      -2.855  -1.036  47.150  1.00  0.00     0.174 HD
ATOM    919 'HO2   G A  35      -8.964  -4.769  46.354  1.00  0.00     0.210 HD
ATOM    920  C1'   C A  33      -1.852  -6.211  35.318  1.00  0.00     0.264 C 
ATOM    921  O2'   C A  33      -4.087  -5.540  34.797  1.00  0.00    -0.388 OA
ATOM    922  N1    C A  33      -1.134  -6.953  36.369  1.00  0.00    -0.278 N 
ATOM    923  C2    C A  33      -1.642  -8.185  36.788  1.00  0.00     0.352 A 
ATOM    924  C6    C A  33       0.007  -6.451  36.929  1.00  0.00     0.102 A 
ATOM    925  O2    C A  33      -2.676  -8.622  36.263  1.00  0.00    -0.244 OA
ATOM    926  N3    C A  33      -0.995  -8.874  37.754  1.00  0.00    -0.177 NA
ATOM    927  C4    C A  33       0.117  -8.377  38.295  1.00  0.00     0.128 A 
ATOM    928  C5    C A  33       0.661  -7.124  37.885  1.00  0.00     0.067 A 
ATOM    929 'HO2   C A  33      -4.232  -4.637  34.515  1.00  0.00     0.210 HD
BRANCH 847 930
ATOM    930  O2'   G A  39      -9.728  10.792  33.388  1.00  0.00    -0.388 OA
ATOM    931 'HO2   G A  39     -10.486  11.241  33.016  1.00  0.00     0.210 HD
ENDBRANCH 847 930
BRANCH 844 932
ATOM    932  O3'   G A  39     -11.872  11.812  34.751  1.00  0.00    -0.279 OA
BRANCH 932 933
ATOM    933  P     G A  40     -11.423  13.348  34.587  1.00  0.00     0.408 P 
ATOM    934  OP2   G A  40     -12.008  13.874  33.328  1.00  0.00    -0.624 OA
ATOM    935  OP1   G A  40     -11.715  14.032  35.873  1.00  0.00    -0.624 OA
BRANCH 933 936
ATOM    936  O5'   G A  40      -9.841  13.272  34.411  1.00  0.00    -0.287 OA
BRANCH 936 937
ATOM    937  C5'   G A  40      -9.156  14.159  33.529  1.00  0.00     0.216 C 
BRANCH 937 938
ATOM    938  C4'   G A  40      -9.154  13.601  32.124  1.00  0.00     0.180 C 
ATOM    939  C3'   G A  40      -7.789  13.213  31.573  1.00  0.00     0.198 C 
ATOM    940  C2'   G A  40      -8.007  13.324  30.069  1.00  0.00     0.199 C 
ATOM    941  C1'   G A  40      -8.898  14.564  29.997  1.00  0.00     0.262 C 
ATOM    942  O2'   G A  40      -8.733  12.211  29.578  1.00  0.00    -0.388 OA
ATOM    943  N9    G A  40      -8.152  15.811  29.853  1.00  0.00    -0.293 N 
ATOM    944  O4'   G A  40      -9.637  14.621  31.205  1.00  0.00    -0.353 OA
ATOM    945  C8    G A  40      -7.724  16.640  30.861  1.00  0.00     0.214 A 
ATOM    946  C4    G A  40      -7.734  16.386  28.677  1.00  0.00     0.187 A 
ATOM    947  N7    G A  40      -7.073  17.685  30.428  1.00  0.00    -0.234 NA
ATOM    948  C5    G A  40      -7.071  17.537  29.047  1.00  0.00     0.173 A 
ATOM    949  C6    G A  40      -6.514  18.361  28.035  1.00  0.00     0.292 A 
ATOM    950  N1    G A  40      -6.742  17.837  26.768  1.00  0.00    -0.153 N 
ATOM    951  O6    G A  40      -5.890  19.421  28.156  1.00  0.00    -0.265 OA
ATOM    952  C2    G A  40      -7.416  16.673  26.506  1.00  0.00     0.703 A 
ATOM    953  H1    G A  40      -6.380  18.360  25.986  1.00  0.00     0.187 HD
ATOM    954  N2    G A  40      -7.525  16.333  25.220  1.00  0.00    -0.233 N 
ATOM    955  N3    G A  40      -7.944  15.898  27.436  1.00  0.00    -0.044 NA
ATOM    956  H21   G A  40      -8.010  15.483  24.977  1.00  0.00     0.174 HD
ATOM    957  H22   G A  40      -7.127  16.913  24.496  1.00  0.00     0.174 HD
ATOM    958 'HO2   G A  40      -8.514  11.473  30.148  1.00  0.00     0.210 HD
BRANCH 939 959
ATOM    959  O3'   G A  40      -7.410  11.900  31.974  1.00  0.00    -0.279 OA
BRANCH 959 960
ATOM    960  P     A A  41      -6.077  11.690  32.852  1.00  0.00     0.408 P 
ATOM    961  OP2   A A  41      -6.458  11.673  34.287  1.00  0.00    -0.624 OA
ATOM    962  OP1   A A  41      -5.350  10.531  32.273  1.00  0.00    -0.624 OA
BRANCH 960 963
ATOM    963  O5'   A A  41      -5.222  13.005  32.571  1.00  0.00    -0.287 OA
BRANCH 963 964
ATOM    964  C5'   A A  41      -5.579  14.256  33.159  1.00  0.00     0.216 C 
BRANCH 964 965
ATOM    965  C4'   A A  41      -4.463  14.751  34.051  1.00  0.00     0.180 C 
ATOM    966  O4'   A A  41      -4.014  16.044  33.558  1.00  0.00    -0.353 OA
ATOM    967  C1'   A A  41      -3.778  16.917  34.648  1.00  0.00     0.262 C 
ATOM    968  C2'   A A  41      -3.888  16.097  35.932  1.00  0.00     0.199 C 
ATOM    969  N9    A A  41      -4.734  18.021  34.565  1.00  0.00    -0.294 N 
ATOM    970  O2'   A A  41      -2.612  15.570  36.243  1.00  0.00    -0.388 OA
ATOM    971  C3'   A A  41      -4.849  14.992  35.505  1.00  0.00     0.198 C 
ATOM    972 'HO2   A A  41      -2.760  14.713  36.643  1.00  0.00     0.210 HD
ATOM    973  O3'   A A  41      -4.691  13.809  36.286  1.00  0.00    -0.279 OA
ATOM    974  P     A A  42      -5.780  13.441  37.412  1.00  0.00     0.408 P 
ATOM    975  OP1   A A  42      -5.393  12.127  37.987  1.00  0.00    -0.624 OA
ATOM    976  O5'   A A  42      -5.570  14.552  38.536  1.00  0.00    -0.287 OA
ATOM    977  OP2   A A  42      -7.134  13.615  36.832  1.00  0.00    -0.624 OA
ATOM    978  C5'   A A  42      -4.438  14.513  39.406  1.00  0.00     0.216 C 
ATOM    979  C4'   A A  42      -4.188  15.881  40.002  1.00  0.00     0.180 C 
ATOM    980  C3'   A A  42      -5.271  16.395  40.943  1.00  0.00     0.198 C 
ATOM    981  O4'   A A  42      -4.129  16.858  38.926  1.00  0.00    -0.353 OA
ATOM    982  O3'   A A  42      -5.047  15.966  42.284  1.00  0.00    -0.279 OA
ATOM    983  C2'   A A  42      -5.150  17.907  40.791  1.00  0.00     0.199 C 
ATOM    984  P     T A  43      -6.275  15.905  43.321  1.00  0.00     0.408 P 
ATOM    985  OP1   T A  43      -5.729  15.467  44.631  1.00  0.00    -0.624 OA
ATOM    986  O5'   T A  43      -6.744  17.422  43.460  1.00  0.00    -0.287 OA
ATOM    987  OP2   T A  43      -7.380  15.136  42.694  1.00  0.00    -0.624 OA
ATOM    988  C5'   T A  43      -5.881  18.412  44.019  1.00  0.00     0.216 C 
ATOM    989  C4'   T A  43      -6.528  19.775  43.939  1.00  0.00     0.180 C 
ATOM    990  C3'   T A  43      -7.932  19.866  44.523  1.00  0.00     0.198 C 
ATOM    991  O4'   T A  43      -6.682  20.141  42.541  1.00  0.00    -0.353 OA
ATOM    992  O3'   T A  43      -7.892  20.144  45.921  1.00  0.00    -0.279 OA
ATOM    993  C2'   T A  43      -8.557  21.002  43.722  1.00  0.00     0.199 C 
ATOM    994  P     C A  44      -9.000  19.504  46.896  1.00  0.00     0.408 P 
ATOM    995  OP2   C A  44      -9.173  18.075  46.530  1.00  0.00    -0.624 OA
ATOM    996  OP1   C A  44      -8.619  19.865  48.285  1.00  0.00    -0.624 OA
ATOM    997  O5'   C A  44     -10.337  20.293  46.530  1.00  0.00    -0.287 OA
ATOM    998  C5'   C A  44     -11.577  19.608  46.356  1.00  0.00     0.216 C 
ATOM    999  C4'   C A  44     -12.159  19.922  44.998  1.00  0.00     0.180 C 
ATOM   1000  C3'   C A  44     -13.512  19.287  44.711  1.00  0.00     0.198 C 
ATOM   1001  O4'   C A  44     -11.275  19.393  43.971  1.00  0.00    -0.353 OA
ATOM   1002  O3'   C A  44     -14.581  20.099  45.187  1.00  0.00    -0.279 OA
ATOM   1003  C2'   C A  44     -13.502  19.166  43.193  1.00  0.00     0.199 C 
ATOM   1004  P     A A  45     -15.957  19.415  45.664  1.00  0.00     0.408 P 
ATOM   1005  OP1   A A  45     -16.735  20.453  46.387  1.00  0.00    -0.624 OA
ATOM   1006  OP2   A A  45     -15.646  18.129  46.337  1.00  0.00    -0.624 OA
ATOM   1007  O5'   A A  45     -16.718  19.092  44.301  1.00  0.00    -0.287 OA
ATOM   1008  C5'   A A  45     -17.092  20.134  43.403  1.00  0.00     0.216 C 
ATOM   1009  C4'   A A  45     -17.999  19.595  42.321  1.00  0.00     0.180 C 
ATOM   1010  O4'   A A  45     -17.180  18.951  41.303  1.00  0.00    -0.353 OA
ATOM   1011  C3'   A A  45     -18.987  18.523  42.766  1.00  0.00     0.198 C 
ATOM   1012  C1'   A A  45     -17.761  17.713  40.934  1.00  0.00     0.262 C 
ATOM   1013  N9    A A  45     -16.918  16.637  41.455  1.00  0.00    -0.294 N 
ATOM   1014  C2'   A A  45     -19.181  17.710  41.493  1.00  0.00     0.199 C 
ATOM   1015  C4    A A  45     -16.790  15.372  40.933  1.00  0.00     0.167 A 
ATOM   1016  C8    A A  45     -16.094  16.674  42.552  1.00  0.00     0.214 A 
ATOM   1017  C5    A A  45     -15.888  14.716  41.750  1.00  0.00     0.149 A 
ATOM   1018  N3    A A  45     -17.409  14.868  39.851  1.00  0.00    -0.222 NA
ATOM   1019  C6    A A  45     -15.579  13.384  41.420  1.00  0.00     0.155 A 
ATOM   1020  N7    A A  45     -15.455  15.550  42.772  1.00  0.00    -0.236 NA
ATOM   1021  N6    A A  45     -14.725  12.631  42.112  1.00  0.00    -0.382 N 
ATOM   1022  N1    A A  45     -16.184  12.847  40.340  1.00  0.00    -0.222 NA
ATOM   1023  H62   A A  45     -14.531  11.683  41.816  1.00  0.00     0.157 HD
ATOM   1024  H61   A A  45     -14.259  13.011  42.922  1.00  0.00     0.157 HD
ATOM   1025  C2    A A  45     -17.039  13.606  39.641  1.00  0.00     0.237 A 
ATOM   1026  O2'   A A  45     -20.031  18.381  40.581  1.00  0.00    -0.388 OA
ATOM   1027 'HO2   A A  45     -20.524  19.027  41.087  1.00  0.00     0.210 HD
ATOM   1028  O3'   A A  45     -20.205  19.092  43.240  1.00  0.00    -0.279 OA
ATOM   1029  P     C A  46     -21.082  18.304  44.333  1.00  0.00     0.408 P 
ATOM   1030  OP2   C A  46     -20.169  17.776  45.378  1.00  0.00    -0.624 OA
ATOM   1031  O5'   C A  46     -21.681  17.066  43.528  1.00  0.00    -0.287 OA
ATOM   1032  OP1   C A  46     -22.208  19.190  44.723  1.00  0.00    -0.624 OA
ATOM   1033  C5'   C A  46     -22.558  17.264  42.421  1.00  0.00     0.216 C 
ATOM   1034  C4'   C A  46     -22.724  15.975  41.649  1.00  0.00     0.180 C 
ATOM   1035  O4'   C A  46     -21.426  15.553  41.150  1.00  0.00    -0.353 OA
ATOM   1036  C3'   C A  46     -23.225  14.788  42.461  1.00  0.00     0.198 C 
ATOM   1037  C1'   C A  46     -21.313  14.144  41.240  1.00  0.00     0.264 C 
ATOM   1038  C2'   C A  46     -22.672  13.601  41.682  1.00  0.00     0.199 C 
ATOM   1039  N1    C A  46     -20.213  13.825  42.166  1.00  0.00    -0.278 N 
ATOM   1040  O2'   C A  46     -23.451  13.339  40.529  1.00  0.00    -0.388 OA
ATOM   1041 'HO2   C A  46     -24.282  13.801  40.647  1.00  0.00     0.210 HD
ATOM   1042  C2    C A  46     -19.540  12.610  42.023  1.00  0.00     0.352 A 
ATOM   1043  C6    C A  46     -19.848  14.703  43.150  1.00  0.00     0.102 A 
ATOM   1044  N3    C A  46     -18.525  12.312  42.864  1.00  0.00    -0.177 NA
ATOM   1045  O2    C A  46     -19.889  11.830  41.125  1.00  0.00    -0.244 OA
ATOM   1046  C4    C A  46     -18.173  13.178  43.817  1.00  0.00     0.128 A 
ATOM   1047  N4    C A  46     -17.165  12.842  44.620  1.00  0.00    -0.384 N 
ATOM   1048  C5    C A  46     -18.841  14.425  43.986  1.00  0.00     0.067 A 
ATOM   1049  H42   C A  46     -16.703  11.953  44.496  1.00  0.00     0.157 HD
ATOM   1050  H41   C A  46     -16.868  13.470  45.353  1.00  0.00     0.157 HD
ATOM   1051  O3'   C A  46     -24.647  14.773  42.540  1.00  0.00    -0.279 OA
ATOM   1052  P     G A  47     -25.373  13.972  43.730  1.00  0.00     0.408 P 
ATOM   1053  OP1   G A  47     -26.832  14.002  43.454  1.00  0.00    -0.624 OA
ATOM   1054  O5'   G A  47     -24.864  12.472  43.554  1.00  0.00    -0.287 OA
ATOM   1055  OP2   G A  47     -24.861  14.489  45.025  1.00  0.00    -0.624 OA
ATOM   1056  C5'   G A  47     -25.290  11.673  42.451  1.00  0.00     0.216 C 
ATOM   1057  C4'   G A  47     -24.845  10.241  42.642  1.00  0.00     0.180 C 
ATOM   1058  C3'   G A  47     -24.994   9.688  44.054  1.00  0.00     0.198 C 
ATOM   1059  O4'   G A  47     -23.423  10.154  42.373  1.00  0.00    -0.353 OA
ATOM   1060  C2'   G A  47     -23.943   8.582  44.092  1.00  0.00     0.199 C 
ATOM   1061  O3'   G A  47     -26.309   9.189  44.286  1.00  0.00    -0.279 OA
ATOM   1062  C1'   G A  47     -22.841   9.170  43.210  1.00  0.00     0.262 C 
ATOM   1063  O2'   G A  47     -24.427   7.400  43.483  1.00  0.00    -0.388 OA
ATOM   1064  N9    G A  47     -21.755   9.791  43.962  1.00  0.00    -0.293 N 
ATOM   1065  C8    G A  47     -21.659  11.104  44.356  1.00  0.00     0.214 A 
ATOM   1066  C4    G A  47     -20.618   9.167  44.415  1.00  0.00     0.187 A 
ATOM   1067  N7    G A  47     -20.560  11.365  45.011  1.00  0.00    -0.234 NA
ATOM   1068  C5    G A  47     -19.893  10.148  45.056  1.00  0.00     0.173 A 
ATOM   1069  C6    G A  47     -18.643   9.802  45.639  1.00  0.00     0.292 A 
ATOM   1070  O6    G A  47     -17.848  10.525  46.252  1.00  0.00    -0.265 OA
ATOM   1071  N1    G A  47     -18.348   8.456  45.451  1.00  0.00    -0.153 N 
ATOM   1072  C2    G A  47     -19.149   7.559  44.790  1.00  0.00     0.703 A 
ATOM   1073  H1    G A  47     -17.475   8.119  45.831  1.00  0.00     0.187 HD
ATOM   1074  N2    G A  47     -18.697   6.306  44.711  1.00  0.00    -0.233 N 
ATOM   1075  N3    G A  47     -20.311   7.866  44.247  1.00  0.00    -0.044 NA
ATOM   1076  H21   G A  47     -19.252   5.611  44.236  1.00  0.00     0.174 HD
ATOM   1077  H22   G A  47     -17.809   6.052  45.121  1.00  0.00     0.174 HD
ATOM   1078 'HO2   G A  47     -25.380   7.415  43.584  1.00  0.00     0.210 HD
ATOM   1079  C1'   C A  44     -12.041  18.794  42.940  1.00  0.00     0.264 C 
ATOM   1080  O2'   C A  44     -13.766  20.414  42.581  1.00  0.00    -0.388 OA
ATOM   1081  N1    C A  44     -11.782  17.344  42.950  1.00  0.00    -0.278 N 
ATOM   1082  C6    C A  44     -11.073  16.766  43.965  1.00  0.00     0.102 A 
ATOM   1083  C2    C A  44     -12.274  16.562  41.900  1.00  0.00     0.352 A 
ATOM   1084  C5    C A  44     -10.833  15.449  43.980  1.00  0.00     0.067 A 
ATOM   1085  C4    C A  44     -11.344  14.677  42.896  1.00  0.00     0.128 A 
ATOM   1086  N4    C A  44     -11.139  13.361  42.855  1.00  0.00    -0.384 N 
ATOM   1087  N3    C A  44     -12.036  15.231  41.900  1.00  0.00    -0.177 NA
ATOM   1088  H41   C A  44     -10.619  12.906  43.593  1.00  0.00     0.157 HD
ATOM   1089  H42   C A  44     -11.505  12.817  42.086  1.00  0.00     0.157 HD
ATOM   1090  O2    C A  44     -12.917  17.107  40.992  1.00  0.00    -0.244 OA
ATOM   1091 'HO2   C A  44     -14.246  20.939  43.223  1.00  0.00     0.210 HD
ATOM   1092  C1'   T A  43      -7.931  20.778  42.344  1.00  0.00     0.264 C 
ATOM   1093  O2'   T A  43      -8.136  22.263  44.210  1.00  0.00    -0.388 OA
ATOM   1094  N1    T A  43      -8.742  19.936  41.454  1.00  0.00    -0.280 N 
ATOM   1095  C2    T A  43      -9.511  20.564  40.492  1.00  0.00     0.331 A 
ATOM   1096  C6    T A  43      -8.736  18.565  41.571  1.00  0.00     0.104 A 
ATOM   1097  N3    T A  43     -10.242  19.724  39.693  1.00  0.00    -0.275 N 
ATOM   1098  O2    T A  43      -9.545  21.774  40.357  1.00  0.00    -0.246 OA
ATOM   1099  H3    T A  43     -10.815  20.159  38.988  1.00  0.00     0.173 HD
ATOM   1100  C4    T A  43     -10.281  18.350  39.753  1.00  0.00     0.250 A 
ATOM   1101  O4    T A  43     -10.984  17.729  38.957  1.00  0.00    -0.268 OA
ATOM   1102  C5    T A  43      -9.461  17.776  40.773  1.00  0.00     0.092 A 
ATOM   1103 'HO2   T A  43      -7.643  22.096  45.014  1.00  0.00     0.210 HD
ATOM   1104  C1'   A A  42      -4.836  18.027  39.301  1.00  0.00     0.262 C 
ATOM   1105  O2'   A A  42      -4.050  18.409  41.527  1.00  0.00    -0.388 OA
ATOM   1106  N9    A A  42      -6.024  18.136  38.456  1.00  0.00    -0.294 N 
ATOM   1107  C8    A A  42      -6.650  17.132  37.759  1.00  0.00     0.214 A 
ATOM   1108  C4    A A  42      -6.745  19.276  38.198  1.00  0.00     0.167 A 
ATOM   1109  N7    A A  42      -7.698  17.532  37.084  1.00  0.00    -0.236 NA
ATOM   1110  C5    A A  42      -7.770  18.891  37.354  1.00  0.00     0.149 A 
ATOM   1111  C6    A A  42      -8.662  19.892  36.935  1.00  0.00     0.155 A 
ATOM   1112  N6    A A  42      -9.693  19.669  36.120  1.00  0.00    -0.382 N 
ATOM   1113  N1    A A  42      -8.456  21.147  37.388  1.00  0.00    -0.222 NA
ATOM   1114  H61   A A  42      -9.858  18.732  35.774  1.00  0.00     0.157 HD
ATOM   1115  H62   A A  42     -10.302  20.427  35.852  1.00  0.00     0.157 HD
ATOM   1116  C2    A A  42      -7.417  21.371  38.205  1.00  0.00     0.237 A 
ATOM   1117  N3    A A  42      -6.510  20.514  38.666  1.00  0.00    -0.222 NA
ATOM   1118 'HO2   A A  42      -3.753  17.702  42.101  1.00  0.00     0.210 HD
ATOM   1119  C4    A A  41      -4.640  19.229  35.213  1.00  0.00     0.167 A 
ATOM   1120  C8    A A  41      -5.894  18.077  33.833  1.00  0.00     0.214 A 
ATOM   1121  N3    A A  41      -3.667  19.633  36.048  1.00  0.00    -0.222 NA
ATOM   1122  C5    A A  41      -5.755  19.951  34.827  1.00  0.00     0.149 A 
ATOM   1123  C2    A A  41      -3.908  20.867  36.485  1.00  0.00     0.237 A 
ATOM   1124  N1    A A  41      -4.932  21.682  36.202  1.00  0.00    -0.222 NA
ATOM   1125  C6    A A  41      -5.891  21.245  35.359  1.00  0.00     0.155 A 
ATOM   1126  N6    A A  41      -6.909  22.058  35.077  1.00  0.00    -0.382 N 
ATOM   1127  H61   A A  41      -7.638  21.752  34.448  1.00  0.00     0.157 HD
ATOM   1128  H62   A A  41      -6.948  22.977  35.495  1.00  0.00     0.157 HD
ATOM   1129  N7    A A  41      -6.541  19.211  33.955  1.00  0.00    -0.236 NA
BRANCH 1061 1130
ATOM   1130  P     T A  48     -27.114   9.624  45.611  1.00  0.00     0.408 P 
ATOM   1131  OP1   T A  48     -27.501   8.370  46.303  1.00  0.00    -0.624 OA
ATOM   1132  OP2   T A  48     -28.161  10.616  45.253  1.00  0.00    -0.624 OA
BRANCH 1130 1133
ATOM   1133  O5'   T A  48     -26.016  10.352  46.510  1.00  0.00    -0.287 OA
BRANCH 1133 1134
ATOM   1134  C5'   T A  48     -25.496   9.735  47.689  1.00  0.00     0.216 C 
BRANCH 1134 1135
ATOM   1135  C4'   T A  48     -24.197  10.393  48.088  1.00  0.00     0.180 C 
ATOM   1136  O4'   T A  48     -24.128  11.701  47.457  1.00  0.00    -0.353 OA
ATOM   1137  C1'   T A  48     -23.567  12.640  48.357  1.00  0.00     0.264 C 
ATOM   1138  N1    T A  48     -24.589  13.652  48.664  1.00  0.00    -0.280 N 
ATOM   1139  C2'   T A  48     -23.078  11.864  49.581  1.00  0.00     0.199 C 
ATOM   1140  C2    T A  48     -24.155  14.903  49.066  1.00  0.00     0.331 A 
ATOM   1141  C6    T A  48     -25.933  13.370  48.558  1.00  0.00     0.104 A 
ATOM   1142  O2    T A  48     -22.978  15.196  49.167  1.00  0.00    -0.246 OA
ATOM   1143  N3    T A  48     -25.153  15.800  49.346  1.00  0.00    -0.275 N 
ATOM   1144  H3    T A  48     -24.861  16.720  49.637  1.00  0.00     0.173 HD
ATOM   1145  C4    T A  48     -26.509  15.584  49.267  1.00  0.00     0.250 A 
ATOM   1146  O4    T A  48     -27.283  16.490  49.573  1.00  0.00    -0.268 OA
ATOM   1147  C5    T A  48     -26.877  14.272  48.840  1.00  0.00     0.092 A 
ATOM   1148  O2'   T A  48     -21.743  11.452  49.353  1.00  0.00    -0.388 OA
ATOM   1149  C3'   T A  48     -24.030  10.675  49.578  1.00  0.00     0.198 C 
ATOM   1150 'HO2   T A  48     -21.550  10.777  50.005  1.00  0.00     0.210 HD
BRANCH 1149 1151
ATOM   1151  O3'   T A  48     -23.492   9.550  50.271  1.00  0.00    -0.279 OA
BRANCH 1151 1152
ATOM   1152  P     C A  49     -22.302   8.691  49.608  1.00  0.00     0.408 P 
ATOM   1153  OP1   C A  49     -21.096   8.872  50.455  1.00  0.00    -0.624 OA
ATOM   1154  OP2   C A  49     -22.232   9.007  48.157  1.00  0.00    -0.624 OA
BRANCH 1152 1155
ATOM   1155  O5'   C A  49     -22.783   7.179  49.757  1.00  0.00    -0.287 OA
BRANCH 1155 1156
ATOM   1156  C5'   C A  49     -22.327   6.362  50.836  1.00  0.00     0.216 C 
BRANCH 1156 1157
ATOM   1157  C4'   C A  49     -22.338   4.906  50.426  1.00  0.00     0.180 C 
ATOM   1158  C3'   C A  49     -21.627   4.582  49.118  1.00  0.00     0.198 C 
ATOM   1159  C2'   C A  49     -22.335   3.308  48.675  1.00  0.00     0.199 C 
ATOM   1160  O2'   C A  49     -21.886   2.186  49.410  1.00  0.00    -0.388 OA
ATOM   1161  C1'   C A  49     -23.774   3.621  49.086  1.00  0.00     0.264 C 
ATOM   1162 'HO2   C A  49     -20.930   2.247  49.451  1.00  0.00     0.210 HD
ATOM   1163  N1    C A  49     -24.558   4.268  48.021  1.00  0.00    -0.278 N 
ATOM   1164  O4'   C A  49     -23.714   4.496  50.199  1.00  0.00    -0.353 OA
ATOM   1165  C2    C A  49     -25.399   3.479  47.238  1.00  0.00     0.352 A 
ATOM   1166  C6    C A  49     -24.460   5.612  47.787  1.00  0.00     0.102 A 
ATOM   1167  O2    C A  49     -25.478   2.268  47.482  1.00  0.00    -0.244 OA
ATOM   1168  N3    C A  49     -26.107   4.052  46.239  1.00  0.00    -0.177 NA
ATOM   1169  C4    C A  49     -25.997   5.362  46.013  1.00  0.00     0.128 A 
ATOM   1170  C5    C A  49     -25.154   6.196  46.801  1.00  0.00     0.067 A 
ATOM   1171  N4    C A  49     -26.707   5.881  45.010  1.00  0.00    -0.384 N 
ATOM   1172  H42   C A  49     -27.300   5.283  44.451  1.00  0.00     0.157 HD
ATOM   1173  H41   C A  49     -26.654   6.868  44.802  1.00  0.00     0.157 HD
BRANCH 1158 1174
ATOM   1174  O3'   C A  49     -20.225   4.390  49.302  1.00  0.00    -0.279 OA
ATOM   1175  P     G A  50     -19.187   5.516  48.804  1.00  0.00     0.408 P 
ATOM   1176  O5'   G A  50     -18.389   4.816  47.615  1.00  0.00    -0.287 OA
ATOM   1177  OP1   G A  50     -18.238   5.761  49.920  1.00  0.00    -0.624 OA
ATOM   1178  OP2   G A  50     -19.955   6.655  48.235  1.00  0.00    -0.624 OA
ATOM   1179  C5'   G A  50     -17.411   3.808  47.873  1.00  0.00     0.216 C 
ATOM   1180  C4'   G A  50     -17.702   2.573  47.049  1.00  0.00     0.180 C 
ATOM   1181  C3'   G A  50     -17.222   2.614  45.605  1.00  0.00     0.198 C 
ATOM   1182  O4'   G A  50     -19.142   2.405  46.942  1.00  0.00    -0.353 OA
ATOM   1183  C2'   G A  50     -18.154   1.619  44.924  1.00  0.00     0.199 C 
ATOM   1184  O3'   G A  50     -15.852   2.235  45.491  1.00  0.00    -0.279 OA
ATOM   1185  C1'   G A  50     -19.465   1.881  45.665  1.00  0.00     0.262 C 
ATOM   1186  O2'   G A  50     -17.747   0.286  45.174  1.00  0.00    -0.388 OA
ATOM   1187  N9    G A  50     -20.334   2.832  44.978  1.00  0.00    -0.293 N 
ATOM   1188  C4    G A  50     -20.820   2.710  43.699  1.00  0.00     0.187 A 
ATOM   1189  C8    G A  50     -20.825   4.017  45.466  1.00  0.00     0.214 A 
ATOM   1190  N3    G A  50     -20.581   1.684  42.856  1.00  0.00    -0.044 NA
ATOM   1191  C5    G A  50     -21.581   3.840  43.487  1.00  0.00     0.173 A 
ATOM   1192  C2    G A  50     -21.183   1.853  41.694  1.00  0.00     0.703 A 
ATOM   1193  N2    G A  50     -21.042   0.934  40.734  1.00  0.00    -0.233 N 
ATOM   1194  N1    G A  50     -21.964   2.935  41.384  1.00  0.00    -0.153 N 
ATOM   1195  H21   G A  50     -20.474   0.119  40.908  1.00  0.00     0.174 HD
ATOM   1196  H22   G A  50     -21.491   1.063  39.838  1.00  0.00     0.174 HD
ATOM   1197  H1    G A  50     -22.380   2.956  40.467  1.00  0.00     0.187 HD
ATOM   1198  C6    G A  50     -22.226   4.003  42.234  1.00  0.00     0.292 A 
ATOM   1199  O6    G A  50     -22.947   4.933  41.850  1.00  0.00    -0.265 OA
ATOM   1200  N7    G A  50     -21.576   4.656  44.612  1.00  0.00    -0.234 NA
ATOM   1201 'HO2   G A  50     -16.793   0.303  45.262  1.00  0.00     0.210 HD
ATOM   1202  P     G A  51     -14.930   2.893  44.347  1.00  0.00     0.408 P 
ATOM   1203  O5'   G A  51     -15.661   2.510  42.983  1.00  0.00    -0.287 OA
ATOM   1204  OP2   G A  51     -14.971   4.371  44.503  1.00  0.00    -0.624 OA
ATOM   1205  OP1   G A  51     -13.622   2.190  44.383  1.00  0.00    -0.624 OA
ATOM   1206  C5'   G A  51     -15.896   1.145  42.635  1.00  0.00     0.216 C 
ATOM   1207  C4'   G A  51     -16.184   1.020  41.155  1.00  0.00     0.180 C 
ATOM   1208  O4'   G A  51     -17.618   1.092  40.927  1.00  0.00    -0.353 OA
ATOM   1209  C3'   G A  51     -15.648   2.124  40.260  1.00  0.00     0.198 C 
ATOM   1210  C1'   G A  51     -17.860   1.638  39.638  1.00  0.00     0.262 C 
ATOM   1211  N9    G A  51     -18.703   2.822  39.780  1.00  0.00    -0.293 N 
ATOM   1212  C2'   G A  51     -16.499   1.944  39.011  1.00  0.00     0.199 C 
ATOM   1213  C4    G A  51     -19.487   3.383  38.801  1.00  0.00     0.187 A 
ATOM   1214  C8    G A  51     -18.867   3.599  40.900  1.00  0.00     0.214 A 
ATOM   1215  N3    G A  51     -19.619   2.932  37.536  1.00  0.00    -0.044 NA
ATOM   1216  C5    G A  51     -20.083   4.476  39.392  1.00  0.00     0.173 A 
ATOM   1217  C2    G A  51     -20.442   3.683  36.828  1.00  0.00     0.703 A 
ATOM   1218  N2    G A  51     -20.683   3.378  35.551  1.00  0.00    -0.233 N 
ATOM   1219  N1    G A  51     -21.087   4.789  37.319  1.00  0.00    -0.153 N 
ATOM   1220  H22   G A  51     -21.306   3.947  34.996  1.00  0.00     0.174 HD
ATOM   1221  H21   G A  51     -20.230   2.572  35.144  1.00  0.00     0.174 HD
ATOM   1222  C6    G A  51     -20.967   5.273  38.617  1.00  0.00     0.292 A 
ATOM   1223  H1    G A  51     -21.695   5.293  36.691  1.00  0.00     0.187 HD
ATOM   1224  O6    G A  51     -21.595   6.281  38.956  1.00  0.00    -0.265 OA
ATOM   1225  N7    G A  51     -19.683   4.600  40.716  1.00  0.00    -0.234 NA
ATOM   1226  O2'   G A  51     -16.081   0.818  38.263  1.00  0.00    -0.388 OA
ATOM   1227 'HO2   G A  51     -15.131   0.759  38.362  1.00  0.00     0.210 HD
ATOM   1228  O3'   G A  51     -14.255   1.989  39.995  1.00  0.00    -0.279 OA
ATOM   1229  P     G A  52     -13.413   3.265  39.493  1.00  0.00     0.408 P 
ATOM   1230  O5'   G A  52     -14.082   3.646  38.098  1.00  0.00    -0.287 OA
ATOM   1231  OP2   G A  52     -13.645   4.382  40.443  1.00  0.00    -0.624 OA
ATOM   1232  OP1   G A  52     -12.026   2.802  39.231  1.00  0.00    -0.624 OA
ATOM   1233  C5'   G A  52     -13.839   2.863  36.931  1.00  0.00     0.216 C 
ATOM   1234  C4'   G A  52     -14.728   3.316  35.794  1.00  0.00     0.180 C 
ATOM   1235  O4'   G A  52     -16.104   3.413  36.246  1.00  0.00    -0.353 OA
ATOM   1236  C3'   G A  52     -14.458   4.707  35.243  1.00  0.00     0.198 C 
ATOM   1237  C1'   G A  52     -16.786   4.378  35.461  1.00  0.00     0.262 C 
ATOM   1238  C2'   G A  52     -15.763   5.014  34.517  1.00  0.00     0.199 C 
ATOM   1239  N9    G A  52     -17.422   5.342  36.353  1.00  0.00    -0.293 N 
ATOM   1240  O2'   G A  52     -15.825   4.345  33.271  1.00  0.00    -0.388 OA
ATOM   1241 'HO2   G A  52     -14.938   4.041  33.077  1.00  0.00     0.210 HD
ATOM   1242  C8    G A  52     -17.210   5.498  37.701  1.00  0.00     0.214 A 
ATOM   1243  C4    G A  52     -18.357   6.287  35.998  1.00  0.00     0.187 A 
ATOM   1244  N7    G A  52     -17.923   6.455  38.228  1.00  0.00    -0.234 NA
ATOM   1245  C5    G A  52     -18.653   6.965  37.161  1.00  0.00     0.173 A 
ATOM   1246  C6    G A  52     -19.603   8.020  37.115  1.00  0.00     0.292 A 
ATOM   1247  O6    G A  52     -20.004   8.740  38.036  1.00  0.00    -0.265 OA
ATOM   1248  N1    G A  52     -20.100   8.204  35.829  1.00  0.00    -0.153 N 
ATOM   1249  C2    G A  52     -19.735   7.469  34.732  1.00  0.00     0.703 A 
ATOM   1250  H1    G A  52     -20.781   8.935  35.698  1.00  0.00     0.187 HD
ATOM   1251  N2    G A  52     -20.324   7.799  33.579  1.00  0.00    -0.233 N 
ATOM   1252  N3    G A  52     -18.855   6.483  34.760  1.00  0.00    -0.044 NA
ATOM   1253  H21   G A  52     -20.089   7.289  32.740  1.00  0.00     0.174 HD
ATOM   1254  H22   G A  52     -20.994   8.554  33.545  1.00  0.00     0.174 HD
ATOM   1255  O3'   G A  52     -13.330   4.732  34.373  1.00  0.00    -0.279 OA
ATOM   1256  P     G A  53     -12.567   6.121  34.095  1.00  0.00     0.408 P 
ATOM   1257  OP2   G A  53     -12.326   6.797  35.394  1.00  0.00    -0.624 OA
ATOM   1258  OP1   G A  53     -11.419   5.821  33.200  1.00  0.00    -0.624 OA
ATOM   1259  O5'   G A  53     -13.622   6.985  33.270  1.00  0.00    -0.287 OA
ATOM   1260  C5'   G A  53     -14.090   6.547  31.996  1.00  0.00     0.216 C 
ATOM   1261  C4'   G A  53     -15.125   7.509  31.457  1.00  0.00     0.180 C 
ATOM   1262  C3'   G A  53     -14.720   8.973  31.420  1.00  0.00     0.198 C 
ATOM   1263  O4'   G A  53     -16.289   7.512  32.324  1.00  0.00    -0.353 OA
ATOM   1264  O3'   G A  53     -13.890   9.269  30.300  1.00  0.00    -0.279 OA
ATOM   1265  C2'   G A  53     -16.074   9.671  31.345  1.00  0.00     0.199 C 
ATOM   1266  P     T A  54     -12.952  10.575  30.324  1.00  0.00     0.408 P 
ATOM   1267  OP2   T A  54     -12.228  10.614  31.620  1.00  0.00    -0.624 OA
ATOM   1268  O5'   T A  54     -13.982  11.791  30.293  1.00  0.00    -0.287 OA
ATOM   1269  OP1   T A  54     -12.183  10.591  29.054  1.00  0.00    -0.624 OA
ATOM   1270  C5'   T A  54     -14.833  12.002  29.169  1.00  0.00     0.216 C 
ATOM   1271  C4'   T A  54     -15.725  13.199  29.404  1.00  0.00     0.180 C 
ATOM   1272  O4'   T A  54     -16.598  12.934  30.534  1.00  0.00    -0.353 OA
ATOM   1273  C3'   T A  54     -15.017  14.488  29.794  1.00  0.00     0.198 C 
ATOM   1274  C1'   T A  54     -16.874  14.148  31.213  1.00  0.00     0.264 C 
ATOM   1275  N1    T A  54     -16.478  13.996  32.620  1.00  0.00    -0.280 N 
ATOM   1276  C2'   T A  54     -16.129  15.268  30.485  1.00  0.00     0.199 C 
ATOM   1277  C6    T A  54     -15.564  13.044  33.012  1.00  0.00     0.104 A 
ATOM   1278  C2    T A  54     -17.057  14.848  33.543  1.00  0.00     0.331 A 
ATOM   1279  C5    T A  54     -15.191  12.891  34.286  1.00  0.00     0.092 A 
ATOM   1280  C4    T A  54     -15.743  13.737  35.298  1.00  0.00     0.250 A 
ATOM   1281  N3    T A  54     -16.648  14.664  34.837  1.00  0.00    -0.275 N 
ATOM   1282  O4    T A  54     -15.469  13.706  36.497  1.00  0.00    -0.268 OA
ATOM   1283  H3    T A  54     -17.057  15.281  35.524  1.00  0.00     0.173 HD
ATOM   1284  O2    T A  54     -17.869  15.702  33.239  1.00  0.00    -0.246 OA
ATOM   1285  O2'   T A  54     -17.004  15.854  29.541  1.00  0.00    -0.388 OA
ATOM   1286 'HO2   T A  54     -16.561  15.815  28.692  1.00  0.00     0.210 HD
ATOM   1287  O2'   G A  53     -16.606   9.611  30.034  1.00  0.00    -0.388 OA
ATOM   1288  C1'   G A  53     -16.920   8.780  32.256  1.00  0.00     0.262 C 
ATOM   1289 'HO2   G A  53     -15.894   9.323  29.462  1.00  0.00     0.210 HD
ATOM   1290  N9    G A  53     -17.059   9.304  33.612  1.00  0.00    -0.293 N 
ATOM   1291  C8    G A  53     -16.429   8.855  34.747  1.00  0.00     0.214 A 
ATOM   1292  C4    G A  53     -17.852  10.357  34.002  1.00  0.00     0.187 A 
ATOM   1293  N7    G A  53     -16.753   9.528  35.817  1.00  0.00    -0.234 NA
ATOM   1294  C5    G A  53     -17.652  10.483  35.360  1.00  0.00     0.173 A 
ATOM   1295  C6    G A  53     -18.349  11.504  36.061  1.00  0.00     0.292 A 
ATOM   1296  O6    G A  53     -18.308  11.779  37.265  1.00  0.00    -0.265 OA
ATOM   1297  N1    G A  53     -19.159  12.246  35.210  1.00  0.00    -0.153 N 
ATOM   1298  C2    G A  53     -19.286  12.036  33.861  1.00  0.00     0.703 A 
ATOM   1299  H1    G A  53     -19.694  12.997  35.619  1.00  0.00     0.187 HD
ATOM   1300  N3    G A  53     -18.647  11.091  33.196  1.00  0.00    -0.044 NA
ATOM   1301  N2    G A  53     -20.114  12.858  33.213  1.00  0.00    -0.233 N 
ATOM   1302  H22   G A  53     -20.608  13.586  33.711  1.00  0.00     0.174 HD
ATOM   1303  H21   G A  53     -20.245  12.747  32.218  1.00  0.00     0.174 HD
BRANCH 1273 1304
ATOM   1304  O3'   T A  54     -14.497  15.171  28.656  1.00  0.00    -0.279 OA
BRANCH 1304 1305
ATOM   1305  P     C A  55     -15.205  14.990  27.223  1.00  0.00     0.408 P 
ATOM   1306  OP2   C A  55     -16.304  14.000  27.363  1.00  0.00    -0.624 OA
ATOM   1307  OP1   C A  55     -15.504  16.349  26.704  1.00  0.00    -0.624 OA
BRANCH 1305 1308
ATOM   1308  O5'   C A  55     -14.071  14.346  26.308  1.00  0.00    -0.287 OA
BRANCH 1308 1309
ATOM   1309  C5'   C A  55     -13.067  13.501  26.869  1.00  0.00     0.216 C 
BRANCH 1309 1310
ATOM   1310  C4'   C A  55     -12.480  12.607  25.801  1.00  0.00     0.180 C 
ATOM   1311  O4'   C A  55     -13.364  11.474  25.593  1.00  0.00    -0.353 OA
ATOM   1312  C1'   C A  55     -13.364  11.113  24.223  1.00  0.00     0.264 C 
ATOM   1313  N1    C A  55     -14.741  11.226  23.713  1.00  0.00    -0.278 N 
ATOM   1314  C2'   C A  55     -12.365  12.018  23.501  1.00  0.00     0.199 C 
ATOM   1315  C2    C A  55     -15.148  10.380  22.679  1.00  0.00     0.352 A 
ATOM   1316  C6    C A  55     -15.610  12.143  24.236  1.00  0.00     0.102 A 
ATOM   1317  N3    C A  55     -16.410  10.476  22.204  1.00  0.00    -0.177 NA
ATOM   1318  O2    C A  55     -14.342   9.559  22.221  1.00  0.00    -0.244 OA
ATOM   1319  C4    C A  55     -17.251  11.370  22.723  1.00  0.00     0.128 A 
ATOM   1320  N4    C A  55     -18.484  11.426  22.224  1.00  0.00    -0.384 N 
ATOM   1321  C5    C A  55     -16.864  12.248  23.778  1.00  0.00     0.067 A 
ATOM   1322  H42   C A  55     -18.749  10.796  21.478  1.00  0.00     0.157 HD
ATOM   1323  H41   C A  55     -19.153  12.088  22.588  1.00  0.00     0.157 HD
ATOM   1324  C3'   C A  55     -12.344  13.235  24.420  1.00  0.00     0.198 C 
BRANCH 1314 1325
ATOM   1325  O2'   C A  55     -11.106  11.373  23.477  1.00  0.00    -0.388 OA
ATOM   1326 'HO2   C A  55     -10.919  11.163  22.562  1.00  0.00     0.210 HD
ENDBRANCH 1314 1325
BRANCH 1324 1327
ATOM   1327  O3'   C A  55     -11.137  13.984  24.302  1.00  0.00    -0.279 OA
BRANCH 1327 1328
ATOM   1328  P     A A  56     -11.199  15.543  23.915  1.00  0.00     0.408 P 
ATOM   1329  O5'   A A  56     -12.236  15.602  22.706  1.00  0.00    -0.287 OA
ATOM   1330  C5'   A A  56     -11.964  14.941  21.471  1.00  0.00     0.216 C 
ATOM   1331  C4'   A A  56     -12.964  15.364  20.420  1.00  0.00     0.180 C 
ATOM   1332  O4'   A A  56     -14.166  14.564  20.565  1.00  0.00    -0.353 OA
ATOM   1333  C3'   A A  56     -13.453  16.803  20.522  1.00  0.00     0.182 C 
ATOM   1334  C1'   A A  56     -15.306  15.355  20.280  1.00  0.00     0.262 C 
ATOM   1335  N9    A A  56     -16.155  15.384  21.469  1.00  0.00    -0.294 N 
ATOM   1336  C2'   A A  56     -14.816  16.736  19.842  1.00  0.00     0.198 C 
ATOM   1337  C4    A A  56     -17.521  15.244  21.498  1.00  0.00     0.167 A 
ATOM   1338  C8    A A  56     -15.767  15.555  22.776  1.00  0.00     0.214 A 
ATOM   1339  C5    A A  56     -17.882  15.344  22.829  1.00  0.00     0.149 A 
ATOM   1340  N3    A A  56     -18.344  15.053  20.453  1.00  0.00    -0.222 NA
ATOM   1341  C6    A A  56     -19.251  15.235  23.128  1.00  0.00     0.155 A 
ATOM   1342  N7    A A  56     -16.763  15.539  23.627  1.00  0.00    -0.236 NA
ATOM   1343  N1    A A  56     -20.105  15.042  22.100  1.00  0.00    -0.222 NA
ATOM   1344  N6    A A  56     -19.749  15.314  24.362  1.00  0.00    -0.382 N 
ATOM   1345  C2    A A  56     -19.608  14.964  20.860  1.00  0.00     0.237 A 
ATOM   1346  H61   A A  56     -19.131  15.460  25.147  1.00  0.00     0.157 HD
ATOM   1347  H62   A A  56     -20.743  15.221  24.507  1.00  0.00     0.157 HD
ATOM   1348  O2'   A A  56     -14.686  16.747  18.433  1.00  0.00    -0.388 OA
ATOM   1349 'HO2   A A  56     -13.874  17.214  18.230  1.00  0.00     0.210 HD
ATOM   1350  O3'   A A  56     -12.564  17.724  19.880  1.00  0.00    -0.390 OA
ATOM   1351 'HO3   A A  56     -11.697  17.602  20.273  1.00  0.00     0.210 HD
ATOM   1352  OP2   A A  56     -11.777  16.292  25.059  1.00  0.00    -0.624 OA
ATOM   1353  OP1   A A  56      -9.862  15.922  23.390  1.00  0.00    -0.624 OA
ENDBRANCH 1327 1328
ENDBRANCH 1324 1327
ENDBRANCH 1309 1310
ENDBRANCH 1308 1309
ENDBRANCH 1305 1308
ENDBRANCH 1304 1305
ENDBRANCH 1273 1304
ENDBRANCH 1158 1174
ENDBRANCH 1156 1157
ENDBRANCH 1155 1156
ENDBRANCH 1152 1155
ENDBRANCH 1151 1152
ENDBRANCH 1149 1151
ENDBRANCH 1134 1135
ENDBRANCH 1133 1134
ENDBRANCH 1130 1133
ENDBRANCH 1061 1130
ENDBRANCH 964 965
ENDBRANCH 963 964
ENDBRANCH 960 963
ENDBRANCH 959 960
ENDBRANCH 939 959
ENDBRANCH 937 938
ENDBRANCH 936 937
ENDBRANCH 933 936
ENDBRANCH 932 933
ENDBRANCH 844 932
BRANCH 927 1354
ATOM   1354  N4    C A  33       0.719  -9.093  39.242  1.00  0.00    -0.384 N 
ATOM   1355  H42   C A  33       1.459  -9.734  38.991  1.00  0.00     0.157 HD
ATOM   1356  H41   C A  33       0.440  -8.997  40.208  1.00  0.00     0.157 HD
ENDBRANCH 927 1354
ENDBRANCH 742 743
ENDBRANCH 741 742
ENDBRANCH 738 741
ENDBRANCH 737 738
ENDBRANCH 703 737
ENDBRANCH 665 666
ENDBRANCH 664 665
ENDBRANCH 661 664
ENDBRANCH 660 661
ENDBRANCH 640 660
ENDBRANCH 638 639
ENDBRANCH 637 638
ENDBRANCH 634 637
ENDBRANCH 633 634
ENDBRANCH 588 633
BRANCH 561 1357
ATOM   1357  O2'   A A  24       2.297   5.403  21.991  1.00  0.00    -0.388 OA
ATOM   1358 'HO2   A A  24       3.127   5.855  22.150  1.00  0.00     0.210 HD
ENDBRANCH 561 1357
BRANCH 631 1359
ATOM   1359  N9    A A  24       0.258   3.033  23.881  1.00  0.00    -0.294 N 
ATOM   1360  C8    A A  24      -0.932   3.619  24.238  1.00  0.00     0.214 A 
ATOM   1361  N7    A A  24      -1.553   3.001  25.214  1.00  0.00    -0.236 NA
ATOM   1362  C5    A A  24      -0.715   1.936  25.521  1.00  0.00     0.149 A 
ATOM   1363  C4    A A  24       0.404   1.945  24.708  1.00  0.00     0.167 A 
ATOM   1364  C6    A A  24      -0.806   0.903  26.469  1.00  0.00     0.155 A 
ATOM   1365  N3    A A  24       1.420   1.067  24.727  1.00  0.00    -0.222 NA
ATOM   1366  C2    A A  24       1.220   0.140  25.661  1.00  0.00     0.237 A 
ATOM   1367  N1    A A  24       0.198   0.003  26.514  1.00  0.00    -0.222 NA
ATOM   1368  N6    A A  24      -1.823   0.764  27.319  1.00  0.00    -0.382 N 
ATOM   1369  H62   A A  24      -1.820  -0.003  27.977  1.00  0.00     0.157 HD
ATOM   1370  H61   A A  24      -2.587   1.424  27.307  1.00  0.00     0.157 HD
ENDBRANCH 631 1359
ENDBRANCH 557 558
ENDBRANCH 556 557
ENDBRANCH 553 556
ENDBRANCH 552 553
ENDBRANCH 534 552
BRANCH 535 1371
ATOM   1371  O2'   G A  23       7.648  -0.492  27.959  1.00  0.00    -0.388 OA
ATOM   1372 'HO2   G A  23       7.646  -0.087  27.091  1.00  0.00     0.210 HD
ENDBRANCH 535 1371
ENDBRANCH 532 533
ENDBRANCH 531 532
ENDBRANCH 499 531
ENDBRANCH 484 485
ENDBRANCH 483 484
ENDBRANCH 480 483
ENDBRANCH 479 480
ENDBRANCH 465 479
BRANCH 467 1373
ATOM   1373  O2'   C A  20       1.369  14.463  36.504  1.00  0.00    -0.388 OA
ATOM   1374 'HO2   C A  20       1.332  14.500  37.460  1.00  0.00     0.210 HD
ENDBRANCH 467 1373
ENDBRANCH 462 463
ENDBRANCH 459 462
ENDBRANCH 458 459
ENDBRANCH 446 458
ENDBRANCH 441 442
ENDBRANCH 425 441
ENDBRANCH 299 300
ENDBRANCH 298 299
ENDBRANCH 295 298
ENDBRANCH 294 295
ENDBRANCH 291 294
ENDBRANCH 272 273
ENDBRANCH 271 272
ENDBRANCH 268 271
ENDBRANCH 267 268
ENDBRANCH 254 267
ENDBRANCH 249 250
ENDBRANCH 248 249
ENDBRANCH 245 248
ENDBRANCH 244 245
ENDBRANCH 227 244
ENDBRANCH 222 223
ENDBRANCH 206 222
ENDBRANCH 195 196
ENDBRANCH 194 195
ENDBRANCH 191 194
ENDBRANCH 190 191
ENDBRANCH 179 190
ENDBRANCH 173 174
ENDBRANCH 172 173
ENDBRANCH 169 172
ENDBRANCH 168 169
ENDBRANCH 167 168
TORSDOF 435
ENDMDL
MODEL 6
REMARK VINA RESULT:      -1.2      7.193     16.796
REMARK WARNING: 32 MAX_TORS EXCEEDED!!!
REMARK  104 active torsions:
REMARK  status: ('A' for Active; 'I' for Inactive)
REMARK       I    between atoms: O5'_2  and  C5'_3 
REMARK       I    between atoms: C5'_3  and  C4'_4 
REMARK       I    between atoms: C1'_6  and  N9_7 
REMARK       I    between atoms: C2_10  and  N2_11 
REMARK       I    between atoms: C2'_21  and  O2'_22 
REMARK       I    between atoms: C3'_24  and  O3'_25 
REMARK       I    between atoms: O3'_25  and  P_26 
REMARK       I    between atoms: P_26  and  O5'_29 
REMARK       I    between atoms: O5'_29  and  C5'_30 
REMARK       I    between atoms: C5'_30  and  C4'_31 
REMARK       I    between atoms: C1'_33  and  N9_34 
REMARK       I    between atoms: C6_39  and  N6_40 
REMARK       I    between atoms: C2'_46  and  O2'_47 
REMARK       I    between atoms: C3'_49  and  O3'_50 
REMARK       I    between atoms: O3'_50  and  P_51 
REMARK       I    between atoms: P_51  and  O5'_54 
REMARK       I    between atoms: O5'_54  and  C5'_55 
REMARK       I    between atoms: C5'_55  and  C4'_56 
REMARK       I    between atoms: C1'_58  and  N1_59 
REMARK       I    between atoms: C4_64  and  N4_65 
REMARK       I    between atoms: C2'_69  and  O2'_70 
REMARK       I    between atoms: C3'_72  and  O3'_73 
REMARK       I    between atoms: O3'_73  and  P_74 
REMARK       I    between atoms: P_74  and  O5'_77 
REMARK       I    between atoms: O5'_77  and  C5'_78 
REMARK       I    between atoms: C5'_78  and  C4'_79 
REMARK       I    between atoms: C1'_81  and  N1_82 
REMARK       I    between atoms: C4_87  and  N4_88 
REMARK       I    between atoms: C2'_92  and  O2'_93 
REMARK       I    between atoms: C3'_95  and  O3'_96 
REMARK       I    between atoms: O3'_96  and  P_97 
REMARK       I    between atoms: P_97  and  O5'_100 
REMARK       I    between atoms: O5'_100  and  C5'_101 
REMARK       I    between atoms: C5'_101  and  C4'_102 
REMARK       I    between atoms: C1'_104  and  N1_105 
REMARK       I    between atoms: C2'_114  and  O2'_115 
REMARK       I    between atoms: C3'_117  and  O3'_118 
REMARK       I    between atoms: O3'_118  and  P_119 
REMARK       I    between atoms: P_119  and  O5'_122 
REMARK       I    between atoms: O5'_122  and  C5'_123 
REMARK       I    between atoms: C5'_123  and  C4'_124 
REMARK       I    between atoms: C1'_126  and  N1_127 
REMARK       I    between atoms: C4_132  and  N4_133 
REMARK       I    between atoms: C2'_137  and  O2'_138 
REMARK       I    between atoms: C3'_140  and  O3'_141 
REMARK       I    between atoms: O3'_141  and  P_142 
REMARK       I    between atoms: P_142  and  O5'_145 
REMARK       I    between atoms: O5'_145  and  C5'_146 
REMARK       I    between atoms: C5'_146  and  C4'_147 
REMARK       I    between atoms: C1'_149  and  N9_150 
REMARK       I    between atoms: C2_153  and  N2_154 
REMARK       I    between atoms: C2'_164  and  O2'_165 
REMARK    1  A    between atoms: C3'_167  and  O3'_168 
REMARK    2  A    between atoms: O3'_168  and  P_169 
REMARK    3  A    between atoms: P_169  and  O5'_172 
REMARK    4  A    between atoms: O5'_172  and  C5'_173 
REMARK    5  A    between atoms: C5'_173  and  C4'_174 
REMARK       I    between atoms: C1'_176  and  N1_177 
REMARK    6  A    between atoms: C2'_186  and  O2'_187 
REMARK    7  A    between atoms: C3'_189  and  O3'_190 
REMARK    8  A    between atoms: O3'_190  and  P_191 
REMARK    9  A    between atoms: P_191  and  O5'_194 
REMARK   10  A    between atoms: O5'_194  and  C5'_195 
REMARK   11  A    between atoms: C5'_195  and  C4'_196 
REMARK       I    between atoms: C1'_198  and  N9_199 
REMARK       I    between atoms: C2_202  and  N2_203 
REMARK   12  A    between atoms: C2'_213  and  O2'_214 
REMARK       I    between atoms: C3'_216  and  O3'_217 
REMARK       I    between atoms: O3'_217  and  P_218 
REMARK       I    between atoms: P_218  and  O5'_221 
REMARK   13  A    between atoms: O5'_221  and  C5'_222 
REMARK   14  A    between atoms: C5'_222  and  C4'_223 
REMARK   15  A    between atoms: C1'_225  and  N9_226 
REMARK       I    between atoms: C2_229  and  N2_230 
REMARK   16  A    between atoms: C2'_240  and  O2'_241 
REMARK   17  A    between atoms: C3'_243  and  O3'_244 
REMARK   18  A    between atoms: O3'_244  and  P_245 
REMARK   19  A    between atoms: P_245  and  O5'_248 
REMARK   20  A    between atoms: O5'_248  and  C5'_249 
REMARK   21  A    between atoms: C5'_249  and  C4'_250 
REMARK   22  A    between atoms: C1'_252  and  N1_253 
REMARK       I    between atoms: C4_258  and  N4_259 
REMARK   23  A    between atoms: C2'_263  and  O2'_264 
REMARK   24  A    between atoms: C3'_266  and  O3'_267 
REMARK   25  A    between atoms: O3'_267  and  P_268 
REMARK   26  A    between atoms: P_268  and  O5'_271 
REMARK   27  A    between atoms: O5'_271  and  C5'_272 
REMARK   28  A    between atoms: C5'_272  and  C4'_273 
REMARK       I    between atoms: C1'_275  and  N9_276 
REMARK       I    between atoms: C2_279  and  N2_280 
REMARK   29  A    between atoms: C2'_290  and  O2'_291 
REMARK   30  A    between atoms: C3'_293  and  O3'_294 
REMARK   31  A    between atoms: O3'_294  and  P_295 
REMARK   32  A    between atoms: P_295  and  O5'_298 
REMARK   33  A    between atoms: O5'_298  and  C5'_299 
REMARK   34  A    between atoms: C5'_299  and  C4'_300 
REMARK       I    between atoms: C1'_302  and  N1_303 
REMARK       I    between atoms: C2'_312  and  O2'_313 
REMARK       I    between atoms: C3'_315  and  O3'_316 
REMARK       I    between atoms: O3'_316  and  P_317 
REMARK       I    between atoms: P_317  and  O5'_320 
REMARK       I    between atoms: O5'_320  and  C5'_321 
REMARK       I    between atoms: C5'_321  and  C4'_322 
REMARK       I    between atoms: C1'_324  and  N1_325 
REMARK       I    between atoms: C4_330  and  N4_331 
REMARK       I    between atoms: C2'_335  and  O2'_336 
REMARK       I    between atoms: C3'_338  and  O3'_339 
REMARK       I    between atoms: O3'_339  and  P_340 
REMARK       I    between atoms: P_340  and  O5'_343 
REMARK       I    between atoms: O5'_343  and  C5'_344 
REMARK       I    between atoms: C5'_344  and  C4'_345 
REMARK       I    between atoms: C1'_347  and  N1_348 
REMARK       I    between atoms: C2'_357  and  O2'_358 
REMARK       I    between atoms: C3'_360  and  O3'_361 
REMARK       I    between atoms: O3'_361  and  P_362 
REMARK       I    between atoms: P_362  and  O5'_365 
REMARK       I    between atoms: O5'_365  and  C5'_366 
REMARK       I    between atoms: C5'_366  and  C4'_367 
REMARK       I    between atoms: C1'_369  and  N9_370 
REMARK       I    between atoms: C2_373  and  N2_374 
REMARK       I    between atoms: C2'_384  and  O2'_385 
REMARK       I    between atoms: C3'_387  and  O3'_388 
REMARK       I    between atoms: O3'_388  and  P_389 
REMARK       I    between atoms: P_389  and  O5'_392 
REMARK       I    between atoms: O5'_392  and  C5'_393 
REMARK       I    between atoms: C5'_393  and  C4'_394 
REMARK       I    between atoms: C1'_396  and  N9_397 
REMARK       I    between atoms: C6_402  and  N6_403 
REMARK       I    between atoms: C2'_409  and  O2'_410 
REMARK       I    between atoms: C3'_412  and  O3'_413 
REMARK       I    between atoms: O3'_413  and  P_414 
REMARK       I    between atoms: P_414  and  O5'_417 
REMARK       I    between atoms: O5'_417  and  C5'_418 
REMARK       I    between atoms: C5'_418  and  C4'_419 
REMARK       I    between atoms: C1'_421  and  N1_422 
REMARK       I    between atoms: C4_427  and  N4_428 
REMARK       I    between atoms: C2'_432  and  O2'_433 
REMARK       I    between atoms: C3'_435  and  O3'_436 
REMARK       I    between atoms: O3'_436  and  P_437 
REMARK       I    between atoms: P_437  and  O5'_440 
REMARK   35  A    between atoms: O5'_440  and  C5'_441 
REMARK   36  A    between atoms: C5'_441  and  C4'_442 
REMARK   37  A    between atoms: C1'_444  and  N1_445 
REMARK   38  A    between atoms: C2'_454  and  O2'_455 
REMARK   39  A    between atoms: C3'_457  and  O3'_458 
REMARK   40  A    between atoms: O3'_458  and  P_459 
REMARK   41  A    between atoms: P_459  and  O5'_462 
REMARK   42  A    between atoms: O5'_462  and  C5'_463 
REMARK       I    between atoms: C5'_463  and  C4'_464 
REMARK       I    between atoms: C1'_466  and  N1_467 
REMARK       I    between atoms: C4_472  and  N4_473 
REMARK   43  A    between atoms: C2'_477  and  O2'_478 
REMARK   44  A    between atoms: C3'_480  and  O3'_481 
REMARK   45  A    between atoms: O3'_481  and  P_482 
REMARK   46  A    between atoms: P_482  and  O5'_485 
REMARK   47  A    between atoms: O5'_485  and  C5'_486 
REMARK   48  A    between atoms: C5'_486  and  C4'_487 
REMARK       I    between atoms: C1'_489  and  N1_490 
REMARK       I    between atoms: C4_495  and  N4_496 
REMARK       I    between atoms: C2'_500  and  O2'_501 
REMARK       I    between atoms: C3'_503  and  O3'_504 
REMARK       I    between atoms: O3'_504  and  P_505 
REMARK       I    between atoms: P_505  and  O5'_508 
REMARK       I    between atoms: O5'_508  and  C5'_509 
REMARK       I    between atoms: C5'_509  and  C4'_510 
REMARK       I    between atoms: C1'_512  and  N9_513 
REMARK       I    between atoms: C6_518  and  N6_519 
REMARK       I    between atoms: C2'_525  and  O2'_526 
REMARK       I    between atoms: C3'_528  and  O3'_529 
REMARK       I    between atoms: O3'_529  and  P_530 
REMARK   49  A    between atoms: P_530  and  O5'_533 
REMARK   50  A    between atoms: O5'_533  and  C5'_534 
REMARK   51  A    between atoms: C5'_534  and  C4'_535 
REMARK       I    between atoms: C1'_537  and  N9_538 
REMARK       I    between atoms: C2_541  and  N2_542 
REMARK   52  A    between atoms: C2'_552  and  O2'_553 
REMARK   53  A    between atoms: C3'_555  and  O3'_556 
REMARK   54  A    between atoms: O3'_556  and  P_557 
REMARK   55  A    between atoms: P_557  and  O5'_560 
REMARK   56  A    between atoms: O5'_560  and  C5'_561 
REMARK   57  A    between atoms: C5'_561  and  C4'_562 
REMARK   58  A    between atoms: C1'_564  and  N9_565 
REMARK       I    between atoms: C6_570  and  N6_571 
REMARK   59  A    between atoms: C2'_577  and  O2'_578 
REMARK       I    between atoms: C3'_580  and  O3'_581 
REMARK       I    between atoms: O3'_581  and  P_582 
REMARK       I    between atoms: P_582  and  O5'_585 
REMARK       I    between atoms: O5'_585  and  C5'_586 
REMARK       I    between atoms: C5'_586  and  C4'_587 
REMARK       I    between atoms: C1'_589  and  N1_590 
REMARK       I    between atoms: C2'_599  and  O2'_600 
REMARK       I    between atoms: C3'_602  and  O3'_603 
REMARK       I    between atoms: O3'_603  and  P_604 
REMARK       I    between atoms: P_604  and  O5'_607 
REMARK       I    between atoms: O5'_607  and  C5'_608 
REMARK       I    between atoms: C5'_608  and  C4'_609 
REMARK       I    between atoms: C1'_611  and  N1_612 
REMARK       I    between atoms: C4_617  and  N4_618 
REMARK       I    between atoms: C2'_622  and  O2'_623 
REMARK       I    between atoms: C3'_625  and  O3'_626 
REMARK       I    between atoms: O3'_626  and  P_627 
REMARK       I    between atoms: P_627  and  O5'_630 
REMARK       I    between atoms: O5'_630  and  C5'_631 
REMARK       I    between atoms: C5'_631  and  C4'_632 
REMARK       I    between atoms: C1'_634  and  N9_635 
REMARK       I    between atoms: C6_640  and  N6_641 
REMARK       I    between atoms: C2'_647  and  O2'_648 
REMARK   60  A    between atoms: C3'_650  and  O3'_651 
REMARK   61  A    between atoms: O3'_651  and  P_652 
REMARK   62  A    between atoms: P_652  and  O5'_655 
REMARK   63  A    between atoms: O5'_655  and  C5'_656 
REMARK   64  A    between atoms: C5'_656  and  C4'_657 
REMARK       I    between atoms: C1'_659  and  N9_660 
REMARK       I    between atoms: C2_663  and  N2_664 
REMARK       I    between atoms: C2'_674  and  O2'_675 
REMARK   65  A    between atoms: C3'_677  and  O3'_678 
REMARK   66  A    between atoms: O3'_678  and  P_679 
REMARK   67  A    between atoms: P_679  and  O5'_682 
REMARK   68  A    between atoms: O5'_682  and  C5'_683 
REMARK   69  A    between atoms: C5'_683  and  C4'_684 
REMARK       I    between atoms: C1'_686  and  N9_687 
REMARK       I    between atoms: C6_692  and  N6_693 
REMARK       I    between atoms: C2'_699  and  O2'_700 
REMARK       I    between atoms: C3'_702  and  O3'_703 
REMARK       I    between atoms: O3'_703  and  P_704 
REMARK       I    between atoms: P_704  and  O5'_707 
REMARK       I    between atoms: O5'_707  and  C5'_708 
REMARK       I    between atoms: C5'_708  and  C4'_709 
REMARK       I    between atoms: C1'_711  and  N9_712 
REMARK       I    between atoms: C6_717  and  N6_718 
REMARK       I    between atoms: C2'_724  and  O2'_725 
REMARK       I    between atoms: C3'_727  and  O3'_728 
REMARK       I    between atoms: O3'_728  and  P_729 
REMARK       I    between atoms: P_729  and  O5'_732 
REMARK       I    between atoms: O5'_732  and  C5'_733 
REMARK       I    between atoms: C5'_733  and  C4'_734 
REMARK       I    between atoms: C1'_736  and  N9_737 
REMARK       I    between atoms: C2_740  and  N2_741 
REMARK       I    between atoms: C2'_751  and  O2'_752 
REMARK   70  A    between atoms: C3'_754  and  O3'_755 
REMARK   71  A    between atoms: O3'_755  and  P_756 
REMARK   72  A    between atoms: P_756  and  O5'_759 
REMARK   73  A    between atoms: O5'_759  and  C5'_760 
REMARK   74  A    between atoms: C5'_760  and  C4'_761 
REMARK       I    between atoms: C1'_763  and  N9_764 
REMARK       I    between atoms: C2_767  and  N2_768 
REMARK       I    between atoms: C2'_778  and  O2'_779 
REMARK       I    between atoms: C3'_781  and  O3'_782 
REMARK       I    between atoms: O3'_782  and  P_783 
REMARK       I    between atoms: P_783  and  O5'_786 
REMARK       I    between atoms: O5'_786  and  C5'_787 
REMARK       I    between atoms: C5'_787  and  C4'_788 
REMARK       I    between atoms: C1'_790  and  N1_791 
REMARK   75  A    between atoms: C4_796  and  N4_797 
REMARK       I    between atoms: C2'_801  and  O2'_802 
REMARK       I    between atoms: C3'_804  and  O3'_805 
REMARK       I    between atoms: O3'_805  and  P_806 
REMARK       I    between atoms: P_806  and  O5'_809 
REMARK       I    between atoms: O5'_809  and  C5'_810 
REMARK       I    between atoms: C5'_810  and  C4'_811 
REMARK       I    between atoms: C1'_813  and  N1_814 
REMARK       I    between atoms: C2'_823  and  O2'_824 
REMARK       I    between atoms: C3'_826  and  O3'_827 
REMARK       I    between atoms: O3'_827  and  P_828 
REMARK       I    between atoms: P_828  and  O5'_831 
REMARK       I    between atoms: O5'_831  and  C5'_832 
REMARK       I    between atoms: C5'_832  and  C4'_833 
REMARK       I    between atoms: C1'_835  and  N9_836 
REMARK       I    between atoms: C2_839  and  N2_840 
REMARK       I    between atoms: C2'_850  and  O2'_851 
REMARK       I    between atoms: C3'_853  and  O3'_854 
REMARK       I    between atoms: O3'_854  and  P_855 
REMARK       I    between atoms: P_855  and  O5'_858 
REMARK       I    between atoms: O5'_858  and  C5'_859 
REMARK       I    between atoms: C5'_859  and  C4'_860 
REMARK       I    between atoms: C1'_862  and  N1_863 
REMARK       I    between atoms: C4_868  and  N4_869 
REMARK       I    between atoms: C2'_873  and  O2'_874 
REMARK       I    between atoms: C3'_876  and  O3'_877 
REMARK       I    between atoms: O3'_877  and  P_878 
REMARK       I    between atoms: P_878  and  O5'_881 
REMARK       I    between atoms: O5'_881  and  C5'_882 
REMARK       I    between atoms: C5'_882  and  C4'_883 
REMARK       I    between atoms: C1'_885  and  N9_886 
REMARK       I    between atoms: C2_889  and  N2_890 
REMARK       I    between atoms: C2'_900  and  O2'_901 
REMARK       I    between atoms: C3'_903  and  O3'_904 
REMARK       I    between atoms: O3'_904  and  P_905 
REMARK       I    between atoms: P_905  and  O5'_908 
REMARK       I    between atoms: O5'_908  and  C5'_909 
REMARK       I    between atoms: C5'_909  and  C4'_910 
REMARK       I    between atoms: C1'_912  and  N1_913 
REMARK       I    between atoms: C2'_922  and  O2'_923 
REMARK       I    between atoms: C3'_925  and  O3'_926 
REMARK       I    between atoms: O3'_926  and  P_927 
REMARK       I    between atoms: P_927  and  O5'_930 
REMARK       I    between atoms: O5'_930  and  C5'_931 
REMARK       I    between atoms: C5'_931  and  C4'_932 
REMARK       I    between atoms: C1'_934  and  N9_935 
REMARK       I    between atoms: C2_938  and  N2_939 
REMARK   76  A    between atoms: C2'_949  and  O2'_950 
REMARK   77  A    between atoms: C3'_952  and  O3'_953 
REMARK   78  A    between atoms: O3'_953  and  P_954 
REMARK   79  A    between atoms: P_954  and  O5'_957 
REMARK   80  A    between atoms: O5'_957  and  C5'_958 
REMARK   81  A    between atoms: C5'_958  and  C4'_959 
REMARK       I    between atoms: C1'_961  and  N9_962 
REMARK       I    between atoms: C2_965  and  N2_966 
REMARK       I    between atoms: C2'_976  and  O2'_977 
REMARK   82  A    between atoms: C3'_979  and  O3'_980 
REMARK   83  A    between atoms: O3'_980  and  P_981 
REMARK   84  A    between atoms: P_981  and  O5'_984 
REMARK   85  A    between atoms: O5'_984  and  C5'_985 
REMARK   86  A    between atoms: C5'_985  and  C4'_986 
REMARK       I    between atoms: C1'_988  and  N9_989 
REMARK       I    between atoms: C6_994  and  N6_995 
REMARK       I    between atoms: C2'_1001  and  O2'_1002 
REMARK       I    between atoms: C3'_1004  and  O3'_1005 
REMARK       I    between atoms: O3'_1005  and  P_1006 
REMARK       I    between atoms: P_1006  and  O5'_1009 
REMARK       I    between atoms: O5'_1009  and  C5'_1010 
REMARK       I    between atoms: C5'_1010  and  C4'_1011 
REMARK       I    between atoms: C1'_1013  and  N9_1014 
REMARK       I    between atoms: C6_1019  and  N6_1020 
REMARK       I    between atoms: C2'_1026  and  O2'_1027 
REMARK       I    between atoms: C3'_1029  and  O3'_1030 
REMARK       I    between atoms: O3'_1030  and  P_1031 
REMARK       I    between atoms: P_1031  and  O5'_1034 
REMARK       I    between atoms: O5'_1034  and  C5'_1035 
REMARK       I    between atoms: C5'_1035  and  C4'_1036 
REMARK       I    between atoms: C1'_1038  and  N1_1039 
REMARK       I    between atoms: C2'_1048  and  O2'_1049 
REMARK       I    between atoms: C3'_1051  and  O3'_1052 
REMARK       I    between atoms: O3'_1052  and  P_1053 
REMARK       I    between atoms: P_1053  and  O5'_1056 
REMARK       I    between atoms: O5'_1056  and  C5'_1057 
REMARK       I    between atoms: C5'_1057  and  C4'_1058 
REMARK       I    between atoms: C1'_1060  and  N1_1061 
REMARK       I    between atoms: C4_1066  and  N4_1067 
REMARK       I    between atoms: C2'_1071  and  O2'_1072 
REMARK       I    between atoms: C3'_1074  and  O3'_1075 
REMARK       I    between atoms: O3'_1075  and  P_1076 
REMARK       I    between atoms: P_1076  and  O5'_1079 
REMARK       I    between atoms: O5'_1079  and  C5'_1080 
REMARK       I    between atoms: C5'_1080  and  C4'_1081 
REMARK       I    between atoms: C1'_1083  and  N9_1084 
REMARK       I    between atoms: C6_1089  and  N6_1090 
REMARK       I    between atoms: C2'_1096  and  O2'_1097 
REMARK       I    between atoms: C3'_1099  and  O3'_1100 
REMARK       I    between atoms: O3'_1100  and  P_1101 
REMARK       I    between atoms: P_1101  and  O5'_1104 
REMARK       I    between atoms: O5'_1104  and  C5'_1105 
REMARK       I    between atoms: C5'_1105  and  C4'_1106 
REMARK       I    between atoms: C1'_1108  and  N1_1109 
REMARK       I    between atoms: C4_1114  and  N4_1115 
REMARK       I    between atoms: C2'_1119  and  O2'_1120 
REMARK       I    between atoms: C3'_1122  and  O3'_1123 
REMARK       I    between atoms: O3'_1123  and  P_1124 
REMARK       I    between atoms: P_1124  and  O5'_1127 
REMARK       I    between atoms: O5'_1127  and  C5'_1128 
REMARK       I    between atoms: C5'_1128  and  C4'_1129 
REMARK       I    between atoms: C1'_1131  and  N9_1132 
REMARK       I    between atoms: C2_1135  and  N2_1136 
REMARK       I    between atoms: C2'_1146  and  O2'_1147 
REMARK       I    between atoms: C3'_1149  and  O3'_1150 
REMARK   87  A    between atoms: O3'_1150  and  P_1151 
REMARK   88  A    between atoms: P_1151  and  O5'_1154 
REMARK   89  A    between atoms: O5'_1154  and  C5'_1155 
REMARK   90  A    between atoms: C5'_1155  and  C4'_1156 
REMARK       I    between atoms: C1'_1158  and  N1_1159 
REMARK       I    between atoms: C2'_1168  and  O2'_1169 
REMARK   91  A    between atoms: C3'_1171  and  O3'_1172 
REMARK   92  A    between atoms: O3'_1172  and  P_1173 
REMARK   93  A    between atoms: P_1173  and  O5'_1176 
REMARK   94  A    between atoms: O5'_1176  and  C5'_1177 
REMARK   95  A    between atoms: C5'_1177  and  C4'_1178 
REMARK       I    between atoms: C1'_1180  and  N1_1181 
REMARK       I    between atoms: C4_1186  and  N4_1187 
REMARK       I    between atoms: C2'_1191  and  O2'_1192 
REMARK   96  A    between atoms: C3'_1194  and  O3'_1195 
REMARK       I    between atoms: O3'_1195  and  P_1196 
REMARK       I    between atoms: P_1196  and  O5'_1199 
REMARK       I    between atoms: O5'_1199  and  C5'_1200 
REMARK       I    between atoms: C5'_1200  and  C4'_1201 
REMARK       I    between atoms: C1'_1203  and  N9_1204 
REMARK       I    between atoms: C2_1207  and  N2_1208 
REMARK       I    between atoms: C2'_1218  and  O2'_1219 
REMARK       I    between atoms: C3'_1221  and  O3'_1222 
REMARK       I    between atoms: O3'_1222  and  P_1223 
REMARK       I    between atoms: P_1223  and  O5'_1226 
REMARK       I    between atoms: O5'_1226  and  C5'_1227 
REMARK       I    between atoms: C5'_1227  and  C4'_1228 
REMARK       I    between atoms: C1'_1230  and  N9_1231 
REMARK       I    between atoms: C2_1234  and  N2_1235 
REMARK       I    between atoms: C2'_1245  and  O2'_1246 
REMARK       I    between atoms: C3'_1248  and  O3'_1249 
REMARK       I    between atoms: O3'_1249  and  P_1250 
REMARK       I    between atoms: P_1250  and  O5'_1253 
REMARK       I    between atoms: O5'_1253  and  C5'_1254 
REMARK       I    between atoms: C5'_1254  and  C4'_1255 
REMARK       I    between atoms: C1'_1257  and  N9_1258 
REMARK       I    between atoms: C2_1261  and  N2_1262 
REMARK       I    between atoms: C2'_1272  and  O2'_1273 
REMARK       I    between atoms: C3'_1275  and  O3'_1276 
REMARK       I    between atoms: O3'_1276  and  P_1277 
REMARK       I    between atoms: P_1277  and  O5'_1280 
REMARK       I    between atoms: O5'_1280  and  C5'_1281 
REMARK       I    between atoms: C5'_1281  and  C4'_1282 
REMARK       I    between atoms: C1'_1284  and  N9_1285 
REMARK       I    between atoms: C2_1288  and  N2_1289 
REMARK       I    between atoms: C2'_1299  and  O2'_1300 
REMARK       I    between atoms: C3'_1302  and  O3'_1303 
REMARK       I    between atoms: O3'_1303  and  P_1304 
REMARK       I    between atoms: P_1304  and  O5'_1307 
REMARK       I    between atoms: O5'_1307  and  C5'_1308 
REMARK       I    between atoms: C5'_1308  and  C4'_1309 
REMARK       I    between atoms: C1'_1311  and  N1_1312 
REMARK       I    between atoms: C2'_1321  and  O2'_1322 
REMARK   97  A    between atoms: C3'_1324  and  O3'_1325 
REMARK   98  A    between atoms: O3'_1325  and  P_1326 
REMARK   99  A    between atoms: P_1326  and  O5'_1329 
REMARK  100  A    between atoms: O5'_1329  and  C5'_1330 
REMARK  101  A    between atoms: C5'_1330  and  C4'_1331 
REMARK       I    between atoms: C1'_1333  and  N1_1334 
REMARK       I    between atoms: C4_1339  and  N4_1340 
REMARK  102  A    between atoms: C2'_1344  and  O2'_1345 
REMARK  103  A    between atoms: C3'_1347  and  O3'_1348 
REMARK  104  A    between atoms: O3'_1348  and  P_1349 
REMARK       I    between atoms: P_1349  and  O5'_1352 
REMARK       I    between atoms: O5'_1352  and  C5'_1353 
REMARK       I    between atoms: C5'_1353  and  C4'_1354 
REMARK       I    between atoms: C1'_1356  and  N9_1357 
REMARK       I    between atoms: C6_1362  and  N6_1363 
REMARK       I    between atoms: C2'_1369  and  O2'_1370 
REMARK       I    between atoms: C3'_1372  and  O3'_1373 
ROOT
ATOM      1 'HO5   G A   1     -41.652  12.480  17.671  1.00  0.00     0.209 HD
ATOM      2  O5'   G A   1     -40.997  11.843  17.371  1.00  0.00    -0.398 OA
ATOM      3  C5'   G A   1     -40.146  12.526  16.446  1.00  0.00     0.198 C 
ATOM      4  C4'   G A   1     -40.067  14.002  16.767  1.00  0.00     0.180 C 
ATOM      5  O4'   G A   1     -41.117  14.337  17.721  1.00  0.00    -0.353 OA
ATOM      6  C1'   G A   1     -40.589  15.172  18.737  1.00  0.00     0.262 C 
ATOM      7  N9    G A   1     -40.514  14.403  19.976  1.00  0.00    -0.293 N 
ATOM      8  C4    G A   1     -40.239  14.897  21.227  1.00  0.00     0.187 A 
ATOM      9  N3    G A   1     -39.994  16.188  21.533  1.00  0.00    -0.044 NA
ATOM     10  C2    G A   1     -39.763  16.353  22.823  1.00  0.00     0.703 A 
ATOM     11  N2    G A   1     -39.503  17.573  23.299  1.00  0.00    -0.233 N 
ATOM     12  H21   G A   1     -39.486  18.359  22.666  1.00  0.00     0.174 HD
ATOM     13  H22   G A   1     -39.329  17.708  24.285  1.00  0.00     0.174 HD
ATOM     14  N1    G A   1     -39.770  15.335  23.741  1.00  0.00    -0.153 N 
ATOM     15  H1    G A   1     -39.581  15.571  24.703  1.00  0.00     0.187 HD
ATOM     16  C6    G A   1     -40.016  13.998  23.450  1.00  0.00     0.292 A 
ATOM     17  O6    G A   1     -39.993  13.157  24.357  1.00  0.00    -0.265 OA
ATOM     18  C5    G A   1     -40.269  13.804  22.068  1.00  0.00     0.173 A 
ATOM     19  N7    G A   1     -40.559  12.646  21.360  1.00  0.00    -0.234 NA
ATOM     20  C8    G A   1     -40.697  13.050  20.127  1.00  0.00     0.214 A 
ATOM     21  C2'   G A   1     -39.232  15.663  18.243  1.00  0.00     0.199 C 
ATOM     22  O2'   G A   1     -39.430  16.793  17.414  1.00  0.00    -0.388 OA
ATOM     23 'HO2   G A   1     -38.596  16.967  16.978  1.00  0.00     0.210 HD
ATOM     24  C3'   G A   1     -38.775  14.455  17.436  1.00  0.00     0.198 C 
ATOM     25  O3'   G A   1     -37.771  14.784  16.479  1.00  0.00    -0.279 OA
ATOM     26  P     A A   2     -36.228  14.463  16.798  1.00  0.00     0.408 P 
ATOM     27  OP1   A A   2     -35.450  14.788  15.576  1.00  0.00    -0.624 OA
ATOM     28  OP2   A A   2     -36.141  13.100  17.381  1.00  0.00    -0.624 OA
ATOM     29  O5'   A A   2     -35.840  15.516  17.931  1.00  0.00    -0.287 OA
ATOM     30  C5'   A A   2     -35.832  16.916  17.660  1.00  0.00     0.216 C 
ATOM     31  C4'   A A   2     -35.426  17.685  18.896  1.00  0.00     0.180 C 
ATOM     32  O4'   A A   2     -36.483  17.577  19.890  1.00  0.00    -0.353 OA
ATOM     33  C1'   A A   2     -35.912  17.469  21.183  1.00  0.00     0.262 C 
ATOM     34  N9    A A   2     -36.269  16.163  21.738  1.00  0.00    -0.294 N 
ATOM     35  C4    A A   2     -36.225  15.804  23.063  1.00  0.00     0.167 A 
ATOM     36  N3    A A   2     -35.852  16.571  24.103  1.00  0.00    -0.222 NA
ATOM     37  C2    A A   2     -35.933  15.888  25.242  1.00  0.00     0.237 A 
ATOM     38  N1    A A   2     -36.315  14.620  25.444  1.00  0.00    -0.222 NA
ATOM     39  C6    A A   2     -36.683  13.878  24.378  1.00  0.00     0.155 A 
ATOM     40  N6    A A   2     -37.064  12.616  24.581  1.00  0.00    -0.382 N 
ATOM     41  H61   A A   2     -37.343  12.044  23.797  1.00  0.00     0.157 HD
ATOM     42  H62   A A   2     -37.073  12.232  25.516  1.00  0.00     0.157 HD
ATOM     43  C5    A A   2     -36.642  14.487  23.112  1.00  0.00     0.149 A 
ATOM     44  N7    A A   2     -36.946  14.022  21.840  1.00  0.00    -0.236 NA
ATOM     45  C8    A A   2     -36.709  15.051  21.064  1.00  0.00     0.214 A 
ATOM     46  C2'   A A   2     -34.405  17.676  21.034  1.00  0.00     0.199 C 
ATOM     47  O2'   A A   2     -34.124  19.059  21.141  1.00  0.00    -0.388 OA
ATOM     48 'HO2   A A   2     -33.379  19.234  20.564  1.00  0.00     0.210 HD
ATOM     49  C3'   A A   2     -34.184  17.175  19.613  1.00  0.00     0.198 C 
ATOM     50  O3'   A A   2     -32.989  17.689  19.031  1.00  0.00    -0.279 OA
ATOM     51  P     C A   3     -31.637  16.818  19.079  1.00  0.00     0.408 P 
ATOM     52  OP1   C A   3     -30.637  17.512  18.228  1.00  0.00    -0.624 OA
ATOM     53  OP2   C A   3     -31.977  15.399  18.803  1.00  0.00    -0.624 OA
ATOM     54  O5'   C A   3     -31.160  16.929  20.596  1.00  0.00    -0.287 OA
ATOM     55  C5'   C A   3     -30.689  18.165  21.129  1.00  0.00     0.216 C 
ATOM     56  C4'   C A   3     -30.596  18.087  22.635  1.00  0.00     0.180 C 
ATOM     57  O4'   C A   3     -31.883  17.681  23.179  1.00  0.00    -0.353 OA
ATOM     58  C1'   C A   3     -31.680  16.897  24.343  1.00  0.00     0.264 C 
ATOM     59  N1    C A   3     -32.276  15.568  24.129  1.00  0.00    -0.278 N 
ATOM     60  C6    C A   3     -32.623  15.145  22.875  1.00  0.00     0.102 A 
ATOM     61  C2    C A   3     -32.479  14.735  25.233  1.00  0.00     0.352 A 
ATOM     62  O2    C A   3     -32.159  15.140  26.359  1.00  0.00    -0.244 OA
ATOM     63  N3    C A   3     -33.018  13.510  25.049  1.00  0.00    -0.177 NA
ATOM     64  C4    C A   3     -33.353  13.108  23.822  1.00  0.00     0.128 A 
ATOM     65  N4    C A   3     -33.878  11.890  23.690  1.00  0.00    -0.384 N 
ATOM     66  H41   C A   3     -34.144  11.546  22.779  1.00  0.00     0.157 HD
ATOM     67  H42   C A   3     -34.007  11.311  24.508  1.00  0.00     0.157 HD
ATOM     68  C5    C A   3     -33.161  13.935  22.676  1.00  0.00     0.067 A 
ATOM     69  C2'   C A   3     -30.173  16.847  24.601  1.00  0.00     0.199 C 
ATOM     70  O2'   C A   3     -29.822  17.929  25.444  1.00  0.00    -0.388 OA
ATOM     71 'HO2   C A   3     -29.177  18.455  24.970  1.00  0.00     0.210 HD
ATOM     72  C3'   C A   3     -29.633  17.047  23.192  1.00  0.00     0.198 C 
ATOM     73  O3'   C A   3     -28.281  17.499  23.184  1.00  0.00    -0.279 OA
ATOM     74  P     C A   4     -27.080  16.427  23.218  1.00  0.00     0.408 P 
ATOM     75  OP1   C A   4     -25.832  17.138  22.847  1.00  0.00    -0.624 OA
ATOM     76  OP2   C A   4     -27.499  15.231  22.443  1.00  0.00    -0.624 OA
ATOM     77  O5'   C A   4     -26.977  16.004  24.753  1.00  0.00    -0.287 OA
ATOM     78  C5'   C A   4     -26.959  16.987  25.788  1.00  0.00     0.216 C 
ATOM     79  C4'   C A   4     -26.810  16.324  27.139  1.00  0.00     0.180 C 
ATOM     80  O4'   C A   4     -28.115  15.845  27.573  1.00  0.00    -0.353 OA
ATOM     81  C1'   C A   4     -27.988  14.550  28.135  1.00  0.00     0.264 C 
ATOM     82  N1    C A   4     -28.628  13.583  27.226  1.00  0.00    -0.278 N 
ATOM     83  C6    C A   4     -28.697  13.825  25.882  1.00  0.00     0.102 A 
ATOM     84  C2    C A   4     -29.162  12.405  27.757  1.00  0.00     0.352 A 
ATOM     85  O2    C A   4     -29.090  12.209  28.979  1.00  0.00    -0.244 OA
ATOM     86  N3    C A   4     -29.744  11.510  26.928  1.00  0.00    -0.177 NA
ATOM     87  C4    C A   4     -29.806  11.757  25.618  1.00  0.00     0.128 A 
ATOM     88  N4    C A   4     -30.385  10.844  24.840  1.00  0.00    -0.384 N 
ATOM     89  H41   C A   4     -30.452  10.989  23.843  1.00  0.00     0.157 HD
ATOM     90  H42   C A   4     -30.759   9.999  25.251  1.00  0.00     0.157 HD
ATOM     91  C5    C A   4     -29.272  12.949  25.049  1.00  0.00     0.067 A 
ATOM     92  C2'   C A   4     -26.497  14.306  28.343  1.00  0.00     0.199 C 
ATOM     93  O2'   C A   4     -26.111  14.867  29.584  1.00  0.00    -0.388 OA
ATOM     94 'HO2   C A   4     -25.185  15.099  29.507  1.00  0.00     0.210 HD
ATOM     95  C3'   C A   4     -25.917  15.089  27.174  1.00  0.00     0.198 C 
ATOM     96  O3'   C A   4     -24.545  15.424  27.371  1.00  0.00    -0.279 OA
ATOM     97  P     T A   5     -23.412  14.713  26.478  1.00  0.00     0.408 P 
ATOM     98  OP1   T A   5     -22.112  15.357  26.802  1.00  0.00    -0.624 OA
ATOM     99  OP2   T A   5     -23.882  14.679  25.070  1.00  0.00    -0.624 OA
ATOM    100  O5'   T A   5     -23.374  13.213  27.021  1.00  0.00    -0.287 OA
ATOM    101  C5'   T A   5     -22.620  12.864  28.182  1.00  0.00     0.216 C 
ATOM    102  C4'   T A   5     -23.417  11.929  29.064  1.00  0.00     0.180 C 
ATOM    103  O4'   T A   5     -24.836  12.155  28.837  1.00  0.00    -0.353 OA
ATOM    104  C1'   T A   5     -25.528  10.919  28.841  1.00  0.00     0.264 C 
ATOM    105  N1    T A   5     -26.097  10.699  27.502  1.00  0.00    -0.280 N 
ATOM    106  C6    T A   5     -25.860  11.582  26.471  1.00  0.00     0.104 A 
ATOM    107  C2    T A   5     -26.879   9.574  27.308  1.00  0.00     0.331 A 
ATOM    108  O2    T A   5     -27.115   8.768  28.193  1.00  0.00    -0.246 OA
ATOM    109  N3    T A   5     -27.377   9.426  26.039  1.00  0.00    -0.275 N 
ATOM    110  H3    T A   5     -27.962   8.624  25.872  1.00  0.00     0.173 HD
ATOM    111  C4    T A   5     -27.181  10.266  24.969  1.00  0.00     0.250 A 
ATOM    112  O4    T A   5     -27.692   9.990  23.884  1.00  0.00    -0.268 OA
ATOM    113  C5    T A   5     -26.367  11.406  25.248  1.00  0.00     0.092 A 
ATOM    114  C2'   T A   5     -24.534   9.842  29.275  1.00  0.00     0.199 C 
ATOM    115  O2'   T A   5     -24.568   9.739  30.686  1.00  0.00    -0.388 OA
ATOM    116 'HO2   T A   5     -23.679   9.910  30.997  1.00  0.00     0.210 HD
ATOM    117  C3'   T A   5     -23.219  10.443  28.793  1.00  0.00     0.198 C 
ATOM    118  O3'   T A   5     -22.095   9.924  29.500  1.00  0.00    -0.279 OA
ATOM    119  P     C A   6     -20.854   9.298  28.686  1.00  0.00     0.408 P 
ATOM    120  OP1   C A   6     -19.750   9.095  29.659  1.00  0.00    -0.624 OA
ATOM    121  OP2   C A   6     -20.622  10.128  27.477  1.00  0.00    -0.624 OA
ATOM    122  O5'   C A   6     -21.385   7.868  28.216  1.00  0.00    -0.287 OA
ATOM    123  C5'   C A   6     -20.527   6.723  28.200  1.00  0.00     0.216 C 
ATOM    124  C4'   C A   6     -21.252   5.516  28.758  1.00  0.00     0.180 C 
ATOM    125  O4'   C A   6     -22.560   5.936  29.252  1.00  0.00    -0.353 OA
ATOM    126  C1'   C A   6     -23.558   5.064  28.752  1.00  0.00     0.264 C 
ATOM    127  N1    C A   6     -24.254   5.730  27.638  1.00  0.00    -0.278 N 
ATOM    128  C6    C A   6     -24.017   7.043  27.342  1.00  0.00     0.102 A 
ATOM    129  C2    C A   6     -25.152   4.987  26.874  1.00  0.00     0.352 A 
ATOM    130  O2    C A   6     -25.368   3.804  27.180  1.00  0.00    -0.244 OA
ATOM    131  N3    C A   6     -25.768   5.569  25.825  1.00  0.00    -0.177 NA
ATOM    132  C4    C A   6     -25.525   6.845  25.533  1.00  0.00     0.128 A 
ATOM    133  N4    C A   6     -26.151   7.367  24.479  1.00  0.00    -0.384 N 
ATOM    134  H41   C A   6     -26.008   8.328  24.206  1.00  0.00     0.157 HD
ATOM    135  H42   C A   6     -26.777   6.777  23.947  1.00  0.00     0.157 HD
ATOM    136  C5    C A   6     -24.628   7.638  26.308  1.00  0.00     0.067 A 
ATOM    137  C2'   C A   6     -22.828   3.798  28.322  1.00  0.00     0.199 C 
ATOM    138  O2'   C A   6     -22.562   3.007  29.466  1.00  0.00    -0.388 OA
ATOM    139 'HO2   C A   6     -21.612   2.989  29.577  1.00  0.00     0.210 HD
ATOM    140  C3'   C A   6     -21.557   4.408  27.753  1.00  0.00     0.198 C 
ATOM    141  O3'   C A   6     -20.507   3.451  27.643  1.00  0.00    -0.279 OA
ATOM    142  P     G A   7     -20.031   2.961  26.187  1.00  0.00     0.408 P 
ATOM    143  OP1   G A   7     -21.241   2.880  25.328  1.00  0.00    -0.624 OA
ATOM    144  OP2   G A   7     -18.900   3.831  25.780  1.00  0.00    -0.624 OA
ATOM    145  O5'   G A   7     -19.490   1.479  26.423  1.00  0.00    -0.287 OA
ATOM    146  C5'   G A   7     -19.594   0.478  25.405  1.00  0.00     0.216 C 
ATOM    147  C4'   G A   7     -18.224   0.139  24.861  1.00  0.00     0.180 C 
ATOM    148  O4'   G A   7     -18.321   0.003  23.416  1.00  0.00    -0.353 OA
ATOM    149  C1'   G A   7     -17.578   1.029  22.807  1.00  0.00     0.262 C 
ATOM    150  N9    G A   7     -18.481   2.152  22.573  1.00  0.00    -0.293 N 
ATOM    151  C4    G A   7     -19.683   2.082  21.920  1.00  0.00     0.187 A 
ATOM    152  N3    G A   7     -20.218   0.973  21.372  1.00  0.00    -0.044 NA
ATOM    153  C2    G A   7     -21.386   1.213  20.815  1.00  0.00     0.703 A 
ATOM    154  N2    G A   7     -22.043   0.216  20.228  1.00  0.00    -0.233 N 
ATOM    155  H21   G A   7     -21.632  -0.705  20.220  1.00  0.00     0.174 HD
ATOM    156  H22   G A   7     -22.944   0.376  19.800  1.00  0.00     0.174 HD
ATOM    157  N1    G A   7     -21.992   2.445  20.796  1.00  0.00    -0.153 N 
ATOM    158  H1    G A   7     -22.890   2.519  20.344  1.00  0.00     0.187 HD
ATOM    159  C6    G A   7     -21.461   3.603  21.355  1.00  0.00     0.292 A 
ATOM    160  O6    G A   7     -22.093   4.664  21.286  1.00  0.00    -0.265 OA
ATOM    161  C5    G A   7     -20.196   3.360  21.957  1.00  0.00     0.173 A 
ATOM    162  N7    G A   7     -19.329   4.221  22.616  1.00  0.00    -0.234 NA
ATOM    163  C8    G A   7     -18.326   3.460  22.961  1.00  0.00     0.214 A 
ATOM    164  C2'   G A   7     -16.426   1.296  23.768  1.00  0.00     0.199 C 
ATOM    165  O2'   G A   7     -15.473   0.262  23.615  1.00  0.00    -0.388 OA
ATOM    166 'HO2   G A   7     -15.911  -0.563  23.838  1.00  0.00     0.210 HD
ATOM    167  C3'   G A   7     -17.149   1.200  25.109  1.00  0.00     0.198 C 
ENDROOT
BRANCH 167 168
ATOM    168  O3'   G A   7     -16.296   0.811  26.179  1.00  0.00    -0.279 OA
BRANCH 168 169
ATOM    169  P     T A   8     -15.784   1.918  27.229  1.00  0.00     0.408 P 
ATOM    170  OP2   T A   8     -14.469   1.482  27.765  1.00  0.00    -0.624 OA
ATOM    171  OP1   T A   8     -16.900   2.205  28.166  1.00  0.00    -0.624 OA
BRANCH 169 172
ATOM    172  O5'   T A   8     -15.546   3.216  26.336  1.00  0.00    -0.287 OA
BRANCH 172 173
ATOM    173  C5'   T A   8     -14.272   3.477  25.750  1.00  0.00     0.216 C 
BRANCH 173 174
ATOM    174  C4'   T A   8     -14.211   4.901  25.255  1.00  0.00     0.180 C 
ATOM    175  O4'   T A   8     -15.506   5.529  25.467  1.00  0.00    -0.353 OA
ATOM    176  C1'   T A   8     -15.324   6.863  25.911  1.00  0.00     0.264 C 
ATOM    177  C2'   T A   8     -13.834   7.183  25.788  1.00  0.00     0.199 C 
ATOM    178  N1    T A   8     -15.838   6.970  27.284  1.00  0.00    -0.280 N 
ATOM    179  C3'   T A   8     -13.223   5.801  25.983  1.00  0.00     0.198 C 
ATOM    180  C6    T A   8     -15.571   5.998  28.222  1.00  0.00     0.104 A 
ATOM    181  C2    T A   8     -16.596   8.081  27.606  1.00  0.00     0.331 A 
ATOM    182  C5    T A   8     -16.014   6.079  29.480  1.00  0.00     0.092 A 
ATOM    183  C4    T A   8     -16.798   7.198  29.892  1.00  0.00     0.250 A 
ATOM    184  N3    T A   8     -17.035   8.127  28.904  1.00  0.00    -0.275 N 
ATOM    185  O4    T A   8     -17.239   7.395  31.025  1.00  0.00    -0.268 OA
ATOM    186  H3    T A   8     -17.600   8.920  29.167  1.00  0.00     0.173 HD
ATOM    187  O2    T A   8     -16.858   8.961  26.805  1.00  0.00    -0.246 OA
BRANCH 177 188
ATOM    188  O2'   T A   8     -13.581   7.678  24.486  1.00  0.00    -0.388 OA
ATOM    189 'HO2   T A   8     -13.800   6.971  23.876  1.00  0.00     0.210 HD
ENDBRANCH 177 188
BRANCH 179 190
ATOM    190  O3'   T A   8     -11.914   5.690  25.428  1.00  0.00    -0.279 OA
BRANCH 190 191
ATOM    191  P     G A   9     -10.709   5.102  26.318  1.00  0.00     0.408 P 
ATOM    192  OP1   G A   9     -10.185   3.907  25.609  1.00  0.00    -0.624 OA
ATOM    193  OP2   G A   9     -11.146   4.981  27.732  1.00  0.00    -0.624 OA
BRANCH 191 194
ATOM    194  O5'   G A   9      -9.595   6.238  26.239  1.00  0.00    -0.287 OA
BRANCH 194 195
ATOM    195  C5'   G A   9      -9.919   7.551  25.782  1.00  0.00     0.216 C 
BRANCH 195 196
ATOM    196  C4'   G A   9      -9.585   8.571  26.844  1.00  0.00     0.180 C 
ATOM    197  O4'   G A   9      -9.712   7.959  28.153  1.00  0.00    -0.353 OA
ATOM    198  C1'   G A   9      -8.758   8.525  29.035  1.00  0.00     0.262 C 
ATOM    199  C2'   G A   9      -7.977   9.587  28.259  1.00  0.00     0.199 C 
ATOM    200  N9    G A   9      -7.914   7.453  29.552  1.00  0.00    -0.293 N 
ATOM    201  C3'   G A   9      -8.159   9.100  26.827  1.00  0.00     0.198 C 
ATOM    202  O3'   G A   9      -7.996  10.146  25.872  1.00  0.00    -0.279 OA
ATOM    203  P     G A  10      -6.650  10.222  24.994  1.00  0.00     0.408 P 
ATOM    204  OP2   G A  10      -6.531   8.967  24.209  1.00  0.00    -0.624 OA
ATOM    205  OP1   G A  10      -6.662  11.530  24.289  1.00  0.00    -0.624 OA
ATOM    206  O5'   G A  10      -5.478  10.250  26.075  1.00  0.00    -0.287 OA
ATOM    207  C8    G A   9      -7.254   6.493  28.826  1.00  0.00     0.214 A 
ATOM    208  C4    G A   9      -7.621   7.209  30.872  1.00  0.00     0.187 A 
ATOM    209  N7    G A   9      -6.568   5.666  29.566  1.00  0.00    -0.234 NA
ATOM    210  C5    G A   9      -6.790   6.109  30.865  1.00  0.00     0.173 A 
ATOM    211  C6    G A   9      -6.309   5.612  32.106  1.00  0.00     0.292 A 
ATOM    212  N1    G A   9      -6.786   6.360  33.176  1.00  0.00    -0.153 N 
ATOM    213  O6    G A   9      -5.562   4.652  32.315  1.00  0.00    -0.265 OA
ATOM    214  H1    G A   9      -6.491   6.073  34.096  1.00  0.00     0.187 HD
ATOM    215  C2    G A   9      -7.616   7.446  33.072  1.00  0.00     0.703 A 
ATOM    216  N3    G A   9      -8.070   7.922  31.928  1.00  0.00    -0.044 NA
ATOM    217  N2    G A   9      -7.969   8.033  34.217  1.00  0.00    -0.233 N 
ATOM    218  H22   G A   9      -7.641   7.681  35.105  1.00  0.00     0.174 HD
ATOM    219  H21   G A   9      -8.581   8.835  34.181  1.00  0.00     0.174 HD
BRANCH 199 220
ATOM    220  O2'   G A   9      -8.598  10.844  28.452  1.00  0.00    -0.388 OA
ATOM    221 'HO2   G A   9      -7.941  11.501  28.219  1.00  0.00     0.210 HD
ENDBRANCH 199 220
BRANCH 206 222
ATOM    222  C5'   G A  10      -5.279  11.387  26.916  1.00  0.00     0.216 C 
BRANCH 222 223
ATOM    223  C4'   G A  10      -4.233  12.306  26.323  1.00  0.00     0.180 C 
ATOM    224  O4'   G A  10      -4.602  13.687  26.569  1.00  0.00    -0.353 OA
ATOM    225  C1'   G A  10      -3.431  14.474  26.707  1.00  0.00     0.262 C 
ATOM    226  C2'   G A  10      -2.222  13.543  26.581  1.00  0.00     0.199 C 
ATOM    227  C3'   G A  10      -2.839  12.190  26.924  1.00  0.00     0.198 C 
BRANCH 225 228
ATOM    228  N9    G A  10      -3.498  15.183  27.982  1.00  0.00    -0.293 N 
ATOM    229  C4    G A  10      -3.189  16.504  28.200  1.00  0.00     0.187 A 
ATOM    230  N3    G A  10      -2.763  17.383  27.269  1.00  0.00    -0.044 NA
ATOM    231  C5    G A  10      -3.406  16.715  29.546  1.00  0.00     0.173 A 
ATOM    232  C2    G A  10      -2.546  18.580  27.782  1.00  0.00     0.703 A 
ATOM    233  N1    G A  10      -2.733  18.895  29.104  1.00  0.00    -0.153 N 
ATOM    234  N2    G A  10      -2.117  19.572  26.997  1.00  0.00    -0.233 N 
ATOM    235  C6    G A  10      -3.169  18.010  30.082  1.00  0.00     0.292 A 
ATOM    236  H1    G A  10      -2.537  19.844  29.386  1.00  0.00     0.187 HD
ATOM    237  O6    G A  10      -3.302  18.399  31.250  1.00  0.00    -0.265 OA
ATOM    238  H21   G A  10      -1.963  19.393  26.016  1.00  0.00     0.174 HD
ATOM    239  H22   G A  10      -1.951  20.492  27.380  1.00  0.00     0.174 HD
ATOM    240  N7    G A  10      -3.843  15.549  30.163  1.00  0.00    -0.234 NA
ATOM    241  C8    G A  10      -3.882  14.671  29.198  1.00  0.00     0.214 A 
ENDBRANCH 225 228
BRANCH 226 242
ATOM    242  O2'   G A  10      -1.769  13.569  25.240  1.00  0.00    -0.388 OA
ATOM    243 'HO2   G A  10      -1.883  14.468  24.931  1.00  0.00     0.210 HD
ENDBRANCH 226 242
BRANCH 227 244
ATOM    244  O3'   G A  10      -2.116  11.098  26.358  1.00  0.00    -0.279 OA
BRANCH 244 245
ATOM    245  P     C A  11      -2.574  10.478  24.945  1.00  0.00     0.408 P 
ATOM    246  OP2   C A  11      -3.283   9.198  25.193  1.00  0.00    -0.624 OA
ATOM    247  OP1   C A  11      -3.258  11.562  24.193  1.00  0.00    -0.624 OA
BRANCH 245 248
ATOM    248  O5'   C A  11      -1.200  10.153  24.207  1.00  0.00    -0.287 OA
BRANCH 248 249
ATOM    249  C5'   C A  11      -0.302  11.198  23.837  1.00  0.00     0.216 C 
BRANCH 249 250
ATOM    250  C4'   C A  11      -0.072  11.186  22.344  1.00  0.00     0.180 C 
ATOM    251  O4'   C A  11       1.042  10.305  22.047  1.00  0.00    -0.353 OA
ATOM    252  C1'   C A  11       0.832   9.683  20.791  1.00  0.00     0.264 C 
ATOM    253  C2'   C A  11      -0.504  10.183  20.234  1.00  0.00     0.199 C 
ATOM    254  C3'   C A  11      -1.214  10.633  21.506  1.00  0.00     0.198 C 
BRANCH 252 255
ATOM    255  N1    C A  11       0.881   8.224  20.977  1.00  0.00    -0.278 N 
ATOM    256  C2    C A  11       2.124   7.611  21.136  1.00  0.00     0.352 A 
ATOM    257  O2    C A  11       3.145   8.310  21.123  1.00  0.00    -0.244 OA
ATOM    258  N3    C A  11       2.186   6.272  21.302  1.00  0.00    -0.177 NA
ATOM    259  C4    C A  11       1.065   5.551  21.315  1.00  0.00     0.128 A 
ATOM    260  N4    C A  11       1.177   4.233  21.482  1.00  0.00    -0.384 N 
ATOM    261  C5    C A  11      -0.220   6.148  21.159  1.00  0.00     0.067 A 
ATOM    262  H41   C A  11       0.355   3.649  21.499  1.00  0.00     0.157 HD
ATOM    263  H42   C A  11       2.094   3.823  21.593  1.00  0.00     0.157 HD
ATOM    264  C6    C A  11      -0.264   7.477  20.994  1.00  0.00     0.102 A 
ENDBRANCH 252 255
BRANCH 253 265
ATOM    265  O2'   C A  11      -0.247  11.278  19.375  1.00  0.00    -0.388 OA
ATOM    266 'HO2   C A  11      -0.876  11.220  18.656  1.00  0.00     0.210 HD
ENDBRANCH 253 265
BRANCH 254 267
ATOM    267  O3'   C A  11      -2.209  11.623  21.253  1.00  0.00    -0.279 OA
BRANCH 267 268
ATOM    268  P     G A  12      -1.780  13.162  21.075  1.00  0.00     0.408 P 
ATOM    269  OP2   G A  12      -0.395  13.332  21.587  1.00  0.00    -0.624 OA
ATOM    270  OP1   G A  12      -2.095  13.543  19.675  1.00  0.00    -0.624 OA
BRANCH 268 271
ATOM    271  O5'   G A  12      -2.781  13.954  22.032  1.00  0.00    -0.287 OA
BRANCH 271 272
ATOM    272  C5'   G A  12      -4.196  13.868  21.859  1.00  0.00     0.216 C 
BRANCH 272 273
ATOM    273  C4'   G A  12      -4.899  14.672  22.928  1.00  0.00     0.180 C 
ATOM    274  O4'   G A  12      -3.902  15.275  23.796  1.00  0.00    -0.353 OA
ATOM    275  C1'   G A  12      -4.340  16.558  24.208  1.00  0.00     0.262 C 
ATOM    276  N9    G A  12      -3.372  17.548  23.745  1.00  0.00    -0.293 N 
ATOM    277  C2'   G A  12      -5.746  16.771  23.644  1.00  0.00     0.199 C 
ATOM    278  C4    G A  12      -3.469  18.911  23.885  1.00  0.00     0.187 A 
ATOM    279  C8    G A  12      -2.191  17.311  23.083  1.00  0.00     0.214 A 
ATOM    280  N3    G A  12      -4.480  19.576  24.482  1.00  0.00    -0.044 NA
ATOM    281  C5    G A  12      -2.332  19.422  23.294  1.00  0.00     0.173 A 
ATOM    282  C2    G A  12      -4.290  20.882  24.462  1.00  0.00     0.703 A 
ATOM    283  N1    G A  12      -3.198  21.492  23.900  1.00  0.00    -0.153 N 
ATOM    284  N2    G A  12      -5.197  21.691  25.014  1.00  0.00    -0.233 N 
ATOM    285  C6    G A  12      -2.146  20.830  23.277  1.00  0.00     0.292 A 
ATOM    286  H1    G A  12      -3.151  22.499  23.940  1.00  0.00     0.187 HD
ATOM    287  O6    G A  12      -1.210  21.480  22.797  1.00  0.00    -0.265 OA
ATOM    288  H22   G A  12      -5.059  22.690  25.014  1.00  0.00     0.174 HD
ATOM    289  H21   G A  12      -6.020  21.292  25.442  1.00  0.00     0.174 HD
ATOM    290  N7    G A  12      -1.536  18.401  22.793  1.00  0.00    -0.234 NA
ATOM    291  C3'   G A  12      -5.722  15.851  22.429  1.00  0.00     0.198 C 
BRANCH 277 292
ATOM    292  O2'   G A  12      -6.689  16.331  24.603  1.00  0.00    -0.388 OA
ATOM    293 'HO2   G A  12      -7.225  15.661  24.178  1.00  0.00     0.210 HD
ENDBRANCH 277 292
BRANCH 291 294
ATOM    294  O3'   G A  12      -7.029  15.450  22.025  1.00  0.00    -0.279 OA
BRANCH 294 295
ATOM    295  P     T A  13      -7.515  15.713  20.514  1.00  0.00     0.408 P 
ATOM    296  OP2   T A  13      -6.422  15.309  19.594  1.00  0.00    -0.624 OA
ATOM    297  OP1   T A  13      -8.862  15.103  20.366  1.00  0.00    -0.624 OA
BRANCH 295 298
ATOM    298  O5'   T A  13      -7.672  17.296  20.428  1.00  0.00    -0.287 OA
BRANCH 298 299
ATOM    299  C5'   T A  13      -8.677  17.890  19.608  1.00  0.00     0.216 C 
BRANCH 299 300
ATOM    300  C4'   T A  13      -8.038  18.673  18.484  1.00  0.00     0.180 C 
ATOM    301  O4'   T A  13      -8.847  19.854  18.214  1.00  0.00    -0.353 OA
ATOM    302  C1'   T A  13      -8.001  20.969  17.987  1.00  0.00     0.264 C 
ATOM    303  N1    T A  13      -8.168  21.916  19.100  1.00  0.00    -0.280 N 
ATOM    304  C2'   T A  13      -6.579  20.431  17.851  1.00  0.00     0.199 C 
ATOM    305  C6    T A  13      -8.786  21.543  20.272  1.00  0.00     0.104 A 
ATOM    306  C2    T A  13      -7.677  23.197  18.931  1.00  0.00     0.331 A 
ATOM    307  C5    T A  13      -8.942  22.385  21.298  1.00  0.00     0.092 A 
ATOM    308  C4    T A  13      -8.457  23.726  21.200  1.00  0.00     0.250 A 
ATOM    309  O4    T A  13      -8.541  24.592  22.071  1.00  0.00    -0.268 OA
ATOM    310  N3    T A  13      -7.852  24.031  20.004  1.00  0.00    -0.275 N 
ATOM    311  H3    T A  13      -7.495  24.969  19.901  1.00  0.00     0.173 HD
ATOM    312  O2    T A  13      -7.128  23.568  17.910  1.00  0.00    -0.246 OA
ATOM    313  C3'   T A  13      -6.646  19.221  18.772  1.00  0.00     0.198 C 
ATOM    314  O2'   T A  13      -6.364  20.041  16.508  1.00  0.00    -0.388 OA
ATOM    315  O3'   T A  13      -5.629  18.264  18.489  1.00  0.00    -0.279 OA
ATOM    316  P     C A  14      -4.251  18.293  19.318  1.00  0.00     0.408 P 
ATOM    317  OP2   C A  14      -4.568  18.537  20.749  1.00  0.00    -0.624 OA
ATOM    318  OP1   C A  14      -3.478  17.084  18.934  1.00  0.00    -0.624 OA
ATOM    319  O5'   C A  14      -3.487  19.573  18.755  1.00  0.00    -0.287 OA
ATOM    320  C5'   C A  14      -2.957  19.588  17.430  1.00  0.00     0.216 C 
ATOM    321  C4'   C A  14      -2.403  20.957  17.103  1.00  0.00     0.180 C 
ATOM    322  O4'   C A  14      -3.446  21.951  17.292  1.00  0.00    -0.353 OA
ATOM    323  C3'   C A  14      -1.266  21.439  17.991  1.00  0.00     0.198 C 
ATOM    324  C1'   C A  14      -2.877  23.151  17.788  1.00  0.00     0.264 C 
ATOM    325  N1    C A  14      -3.484  23.449  19.097  1.00  0.00    -0.278 N 
ATOM    326  C2'   C A  14      -1.362  22.952  17.846  1.00  0.00     0.199 C 
ATOM    327  C6    C A  14      -4.170  22.488  19.786  1.00  0.00     0.102 A 
ATOM    328  C2    C A  14      -3.351  24.736  19.625  1.00  0.00     0.352 A 
ATOM    329  C5    C A  14      -4.730  22.757  20.972  1.00  0.00     0.067 A 
ATOM    330  C4    C A  14      -4.579  24.078  21.485  1.00  0.00     0.128 A 
ATOM    331  N3    C A  14      -3.909  25.022  20.822  1.00  0.00    -0.177 NA
ATOM    332  N4    C A  14      -5.115  24.406  22.660  1.00  0.00    -0.384 N 
ATOM    333  H42   C A  14      -4.999  25.345  23.016  1.00  0.00     0.157 HD
ATOM    334  H41   C A  14      -5.631  23.723  23.195  1.00  0.00     0.157 HD
ATOM    335  O2    C A  14      -2.720  25.590  18.983  1.00  0.00    -0.244 OA
ATOM    336  O2'   C A  14      -0.802  23.387  16.621  1.00  0.00    -0.388 OA
ATOM    337 'HO2   C A  14      -0.266  22.668  16.288  1.00  0.00     0.210 HD
ATOM    338  O3'   C A  14      -0.007  20.928  17.558  1.00  0.00    -0.279 OA
ATOM    339  P     T A  15       1.244  20.922  18.571  1.00  0.00     0.408 P 
ATOM    340  OP2   T A  15       0.777  20.430  19.892  1.00  0.00    -0.624 OA
ATOM    341  O5'   T A  15       1.627  22.461  18.721  1.00  0.00    -0.287 OA
ATOM    342  OP1   T A  15       2.364  20.229  17.883  1.00  0.00    -0.624 OA
ATOM    343  C5'   T A  15       2.132  23.205  17.612  1.00  0.00     0.216 C 
ATOM    344  C4'   T A  15       2.648  24.547  18.074  1.00  0.00     0.180 C 
ATOM    345  C3'   T A  15       3.485  24.528  19.345  1.00  0.00     0.198 C 
ATOM    346  O4'   T A  15       1.518  25.403  18.401  1.00  0.00    -0.353 OA
ATOM    347  O3'   T A  15       4.850  24.218  19.075  1.00  0.00    -0.279 OA
ATOM    348  C2'   T A  15       3.297  25.943  19.876  1.00  0.00     0.199 C 
ATOM    349  P     G A  16       5.739  23.485  20.196  1.00  0.00     0.408 P 
ATOM    350  O5'   G A  16       5.977  24.613  21.298  1.00  0.00    -0.287 OA
ATOM    351  OP2   G A  16       4.930  22.401  20.809  1.00  0.00    -0.624 OA
ATOM    352  OP1   G A  16       7.050  23.160  19.577  1.00  0.00    -0.624 OA
ATOM    353  C5'   G A  16       6.974  25.617  21.117  1.00  0.00     0.216 C 
ATOM    354  C4'   G A  16       6.812  26.710  22.147  1.00  0.00     0.180 C 
ATOM    355  C3'   G A  16       7.162  26.328  23.578  1.00  0.00     0.198 C 
ATOM    356  O4'   G A  16       5.414  27.095  22.224  1.00  0.00    -0.353 OA
ATOM    357  C2'   G A  16       6.374  27.349  24.388  1.00  0.00     0.199 C 
ATOM    358  O3'   G A  16       8.565  26.409  23.818  1.00  0.00    -0.279 OA
ATOM    359  O2'   G A  16       7.029  28.604  24.403  1.00  0.00    -0.388 OA
ATOM    360  C1'   G A  16       5.098  27.475  23.553  1.00  0.00     0.262 C 
ATOM    361 'HO2   G A  16       7.956  28.431  24.234  1.00  0.00     0.210 HD
ATOM    362  N9    G A  16       4.006  26.630  24.028  1.00  0.00    -0.293 N 
ATOM    363  C4    G A  16       3.241  26.840  25.150  1.00  0.00     0.187 A 
ATOM    364  C8    G A  16       3.535  25.476  23.450  1.00  0.00     0.214 A 
ATOM    365  N3    G A  16       3.371  27.865  26.018  1.00  0.00    -0.044 NA
ATOM    366  C5    G A  16       2.341  25.796  25.181  1.00  0.00     0.173 A 
ATOM    367  C2    G A  16       2.490  27.794  26.999  1.00  0.00     0.703 A 
ATOM    368  N1    G A  16       1.553  26.800  27.121  1.00  0.00    -0.153 N 
ATOM    369  N2    G A  16       2.481  28.731  27.950  1.00  0.00    -0.233 N 
ATOM    370  H1    G A  16       0.925  26.842  27.909  1.00  0.00     0.187 HD
ATOM    371  C6    G A  16       1.401  25.735  26.241  1.00  0.00     0.292 A 
ATOM    372  O6    G A  16       0.521  24.890  26.445  1.00  0.00    -0.265 OA
ATOM    373  H22   G A  16       1.814  28.687  28.708  1.00  0.00     0.174 HD
ATOM    374  H21   G A  16       3.151  29.485  27.907  1.00  0.00     0.174 HD
ATOM    375  N7    G A  16       2.538  24.944  24.101  1.00  0.00    -0.234 NA
ATOM    376  P     A A  17       9.227  25.538  24.998  1.00  0.00     0.408 P 
ATOM    377  O5'   A A  17       8.553  26.106  26.325  1.00  0.00    -0.287 OA
ATOM    378  OP1   A A  17      10.674  25.870  25.034  1.00  0.00    -0.624 OA
ATOM    379  OP2   A A  17       8.803  24.124  24.831  1.00  0.00    -0.624 OA
ATOM    380  C5'   A A  17       8.816  27.436  26.773  1.00  0.00     0.216 C 
ATOM    381  C4'   A A  17       8.260  27.641  28.162  1.00  0.00     0.180 C 
ATOM    382  O4'   A A  17       6.817  27.770  28.083  1.00  0.00    -0.353 OA
ATOM    383  C3'   A A  17       8.471  26.490  29.134  1.00  0.00     0.198 C 
ATOM    384  C1'   A A  17       6.227  27.233  29.254  1.00  0.00     0.262 C 
ATOM    385  C2'   A A  17       7.351  26.703  30.148  1.00  0.00     0.199 C 
ATOM    386  N9    A A  17       5.261  26.210  28.854  1.00  0.00    -0.294 N 
ATOM    387  O2'   A A  17       7.696  27.709  31.081  1.00  0.00    -0.388 OA
ATOM    388 'HO2   A A  17       8.648  27.810  31.038  1.00  0.00     0.210 HD
ATOM    389  C4    A A  17       4.177  25.789  29.586  1.00  0.00     0.167 A 
ATOM    390  C8    A A  17       5.236  25.478  27.693  1.00  0.00     0.214 A 
ATOM    391  N3    A A  17       3.796  26.223  30.799  1.00  0.00    -0.222 NA
ATOM    392  C5    A A  17       3.553  24.825  28.815  1.00  0.00     0.149 A 
ATOM    393  C2    A A  17       2.694  25.592  31.197  1.00  0.00     0.237 A 
ATOM    394  N1    A A  17       1.984  24.647  30.568  1.00  0.00    -0.222 NA
ATOM    395  C6    A A  17       2.396  24.232  29.351  1.00  0.00     0.155 A 
ATOM    396  N6    A A  17       1.688  23.290  28.726  1.00  0.00    -0.382 N 
ATOM    397  H62   A A  17       0.865  22.902  29.165  1.00  0.00     0.157 HD
ATOM    398  H61   A A  17       1.978  22.965  27.816  1.00  0.00     0.157 HD
ATOM    399  N7    A A  17       4.233  24.637  27.619  1.00  0.00    -0.236 NA
ATOM    400  O3'   A A  17       9.763  26.542  29.733  1.00  0.00    -0.279 OA
ATOM    401  P     C A  18      10.548  25.177  30.064  1.00  0.00     0.408 P 
ATOM    402  O5'   C A  18       9.692  24.510  31.231  1.00  0.00    -0.287 OA
ATOM    403  OP2   C A  18      10.474  24.290  28.875  1.00  0.00    -0.624 OA
ATOM    404  OP1   C A  18      11.873  25.552  30.619  1.00  0.00    -0.624 OA
ATOM    405  C5'   C A  18       9.444  25.205  32.453  1.00  0.00     0.216 C 
ATOM    406  C4'   C A  18       8.342  24.520  33.226  1.00  0.00     0.180 C 
ATOM    407  C3'   C A  18       8.529  23.022  33.433  1.00  0.00     0.198 C 
ATOM    408  O4'   C A  18       7.102  24.643  32.478  1.00  0.00    -0.353 OA
ATOM    409  C2'   C A  18       7.096  22.513  33.532  1.00  0.00     0.199 C 
ATOM    410  O3'   C A  18       9.283  22.753  34.613  1.00  0.00    -0.279 OA
ATOM    411  C1'   C A  18       6.382  23.426  32.536  1.00  0.00     0.264 C 
ATOM    412  O2'   C A  18       6.564  22.740  34.824  1.00  0.00    -0.388 OA
ATOM    413  N1    C A  18       6.299  22.874  31.174  1.00  0.00    -0.278 N 
ATOM    414  C2    C A  18       5.063  22.423  30.701  1.00  0.00     0.352 A 
ATOM    415  C6    C A  18       7.409  22.800  30.379  1.00  0.00     0.102 A 
ATOM    416  O2    C A  18       4.071  22.506  31.439  1.00  0.00    -0.244 OA
ATOM    417  N3    C A  18       4.980  21.907  29.455  1.00  0.00    -0.177 NA
ATOM    418  C4    C A  18       6.070  21.837  28.689  1.00  0.00     0.128 A 
ATOM    419  C5    C A  18       7.341  22.293  29.142  1.00  0.00     0.067 A 
ATOM    420  N4    C A  18       5.939  21.318  27.470  1.00  0.00    -0.384 N 
ATOM    421  H41   C A  18       6.741  21.245  26.859  1.00  0.00     0.157 HD
ATOM    422  H42   C A  18       5.034  20.998  27.157  1.00  0.00     0.157 HD
ATOM    423 'HO2   C A  18       7.308  22.911  35.400  1.00  0.00     0.210 HD
ATOM    424  P     T A  19      10.428  21.623  34.592  1.00  0.00     0.408 P 
ATOM    425  O5'   T A  19       9.642  20.272  34.905  1.00  0.00    -0.287 OA
ATOM    426  OP1   T A  19      11.340  21.899  35.732  1.00  0.00    -0.624 OA
ATOM    427  OP2   T A  19      10.983  21.531  33.216  1.00  0.00    -0.624 OA
ATOM    428  C1'   T A  15       1.824  26.181  19.546  1.00  0.00     0.264 C 
ATOM    429  O2'   T A  15       4.083  26.873  19.155  1.00  0.00    -0.388 OA
ATOM    430  N1    T A  15       0.911  25.793  20.631  1.00  0.00    -0.280 N 
ATOM    431  C2    T A  15       0.598  26.744  21.584  1.00  0.00     0.331 A 
ATOM    432  C6    T A  15       0.385  24.522  20.701  1.00  0.00     0.104 A 
ATOM    433  N3    T A  15      -0.251  26.319  22.571  1.00  0.00    -0.275 N 
ATOM    434  O2    T A  15       1.039  27.879  21.557  1.00  0.00    -0.246 OA
ATOM    435  H3    T A  15      -0.484  26.996  23.284  1.00  0.00     0.173 HD
ATOM    436  C4    T A  15      -0.812  25.071  22.702  1.00  0.00     0.250 A 
ATOM    437  O4    T A  15      -1.570  24.845  23.646  1.00  0.00    -0.268 OA
ATOM    438  C5    T A  15      -0.444  24.143  21.679  1.00  0.00     0.092 A 
ATOM    439 'HO2   T A  15       4.931  26.922  19.599  1.00  0.00     0.210 HD
ATOM    440 'HO2   T A  13      -5.880  19.216  16.535  1.00  0.00     0.210 HD
BRANCH 425 441
ATOM    441  C5'   T A  19      10.243  19.000  34.663  1.00  0.00     0.216 C 
BRANCH 441 442
ATOM    442  C4'   T A  19       9.418  18.212  33.674  1.00  0.00     0.180 C 
ATOM    443  O4'   T A  19      10.281  17.254  33.001  1.00  0.00    -0.353 OA
ATOM    444  C1'   T A  19       9.635  15.998  32.913  1.00  0.00     0.264 C 
ATOM    445  C2'   T A  19       8.181  16.191  33.346  1.00  0.00     0.199 C 
ATOM    446  C3'   T A  19       8.300  17.380  34.293  1.00  0.00     0.198 C 
BRANCH 444 447
ATOM    447  N1    T A  19      10.382  15.037  33.736  1.00  0.00    -0.280 N 
ATOM    448  C2    T A  19      10.511  13.745  33.260  1.00  0.00     0.331 A 
ATOM    449  O2    T A  19      10.024  13.376  32.206  1.00  0.00    -0.246 OA
ATOM    450  N3    T A  19      11.227  12.899  34.065  1.00  0.00    -0.275 N 
ATOM    451  H3    T A  19      11.343  11.955  33.733  1.00  0.00     0.173 HD
ATOM    452  C4    T A  19      11.812  13.201  35.274  1.00  0.00     0.250 A 
ATOM    453  O4    T A  19      12.437  12.331  35.878  1.00  0.00    -0.268 OA
ATOM    454  C5    T A  19      11.630  14.553  35.701  1.00  0.00     0.092 A 
ATOM    455  C6    T A  19      10.940  15.407  34.939  1.00  0.00     0.104 A 
ENDBRANCH 444 447
BRANCH 445 456
ATOM    456  O2'   T A  19       7.409  16.518  32.206  1.00  0.00    -0.388 OA
ATOM    457 'HO2   T A  19       6.894  15.739  31.994  1.00  0.00     0.210 HD
ENDBRANCH 445 456
BRANCH 446 458
ATOM    458  O3'   T A  19       7.090  18.129  34.373  1.00  0.00    -0.279 OA
BRANCH 458 459
ATOM    459  P     C A  20       6.511  18.559  35.811  1.00  0.00     0.408 P 
ATOM    460  OP2   C A  20       7.526  18.235  36.845  1.00  0.00    -0.624 OA
ATOM    461  OP1   C A  20       6.010  19.952  35.684  1.00  0.00    -0.624 OA
BRANCH 459 462
ATOM    462  O5'   C A  20       5.257  17.599  36.015  1.00  0.00    -0.287 OA
BRANCH 462 463
ATOM    463  C5'   C A  20       5.185  16.704  37.123  1.00  0.00     0.216 C 
ATOM    464  C4'   C A  20       3.845  16.006  37.137  1.00  0.00     0.180 C 
ATOM    465  C3'   C A  20       3.294  15.637  35.766  1.00  0.00     0.198 C 
ATOM    466  O4'   C A  20       2.857  16.906  37.711  1.00  0.00    -0.353 OA
ATOM    467  C2'   C A  20       1.787  15.679  35.987  1.00  0.00     0.199 C 
ATOM    468  C1'   C A  20       1.665  16.860  36.950  1.00  0.00     0.264 C 
ATOM    469  N1    C A  20       1.488  18.159  36.280  1.00  0.00    -0.278 N 
ATOM    470  C2    C A  20       0.201  18.692  36.167  1.00  0.00     0.352 A 
ATOM    471  C6    C A  20       2.562  18.839  35.777  1.00  0.00     0.102 A 
ATOM    472  O2    C A  20      -0.755  18.056  36.633  1.00  0.00    -0.244 OA
ATOM    473  N3    C A  20       0.031  19.885  35.553  1.00  0.00    -0.177 NA
ATOM    474  C4    C A  20       1.085  20.539  35.064  1.00  0.00     0.128 A 
ATOM    475  C5    C A  20       2.408  20.021  35.167  1.00  0.00     0.067 A 
ATOM    476  N4    C A  20       0.867  21.711  34.469  1.00  0.00    -0.384 N 
ATOM    477  H42   C A  20      -0.077  22.066  34.405  1.00  0.00     0.157 HD
ATOM    478  H41   C A  20       1.637  22.239  34.086  1.00  0.00     0.157 HD
BRANCH 465 479
ATOM    479  O3'   C A  20       3.748  14.352  35.350  1.00  0.00    -0.279 OA
BRANCH 479 480
ATOM    480  P     C A  21       4.648  14.213  34.024  1.00  0.00     0.408 P 
ATOM    481  OP2   C A  21       4.144  13.059  33.233  1.00  0.00    -0.624 OA
ATOM    482  OP1   C A  21       4.720  15.555  33.396  1.00  0.00    -0.624 OA
BRANCH 480 483
ATOM    483  O5'   C A  21       6.095  13.848  34.580  1.00  0.00    -0.287 OA
BRANCH 483 484
ATOM    484  C5'   C A  21       6.950  12.951  33.875  1.00  0.00     0.216 C 
BRANCH 484 485
ATOM    485  C4'   C A  21       7.797  12.166  34.846  1.00  0.00     0.180 C 
ATOM    486  C3'   C A  21       7.941  10.683  34.528  1.00  0.00     0.198 C 
ATOM    487  O3'   C A  21       9.022  10.445  33.630  1.00  0.00    -0.279 OA
ATOM    488  C2'   C A  21       8.181  10.072  35.903  1.00  0.00     0.199 C 
ATOM    489  P     A A  22       8.839   9.407  32.416  1.00  0.00     0.408 P 
ATOM    490  OP2   A A  22       7.605   9.770  31.674  1.00  0.00    -0.624 OA
ATOM    491  O5'   A A  22       8.596   8.008  33.139  1.00  0.00    -0.287 OA
ATOM    492  OP1   A A  22      10.134   9.337  31.694  1.00  0.00    -0.624 OA
ATOM    493  C5'   A A  22       9.610   7.413  33.946  1.00  0.00     0.216 C 
ATOM    494  C4'   A A  22       9.096   6.141  34.580  1.00  0.00     0.180 C 
ATOM    495  C3'   A A  22       8.288   5.232  33.665  1.00  0.00     0.198 C 
ATOM    496  O4'   A A  22       8.175   6.486  35.654  1.00  0.00    -0.353 OA
ATOM    497  O3'   A A  22       9.126   4.361  32.910  1.00  0.00    -0.279 OA
ATOM    498  C2'   A A  22       7.407   4.482  34.653  1.00  0.00     0.199 C 
ATOM    499  P     G A  23       8.688   3.920  31.427  1.00  0.00     0.408 P 
ATOM    500  OP2   G A  23       8.383   5.143  30.642  1.00  0.00    -0.624 OA
ATOM    501  OP1   G A  23       9.714   2.968  30.931  1.00  0.00    -0.624 OA
ATOM    502  C1'   A A  22       7.068   5.600  35.636  1.00  0.00     0.262 C 
ATOM    503  O2'   A A  22       8.139   3.481  35.334  1.00  0.00    -0.388 OA
ATOM    504  N9    A A  22       5.875   6.363  35.267  1.00  0.00    -0.294 N 
ATOM    505  C4    A A  22       4.570   5.964  35.424  1.00  0.00     0.167 A 
ATOM    506  C8    A A  22       5.818   7.611  34.697  1.00  0.00     0.214 A 
ATOM    507  N3    A A  22       4.127   4.805  35.943  1.00  0.00    -0.222 NA
ATOM    508  C5    A A  22       3.796   7.001  34.935  1.00  0.00     0.149 A 
ATOM    509  C2    A A  22       2.797   4.764  35.933  1.00  0.00     0.237 A 
ATOM    510  N1    A A  22       1.924   5.682  35.499  1.00  0.00    -0.222 NA
ATOM    511  C6    A A  22       2.401   6.834  34.984  1.00  0.00     0.155 A 
ATOM    512  N6    A A  22       1.532   7.748  34.551  1.00  0.00    -0.382 N 
ATOM    513  H61   A A  22       1.869   8.618  34.162  1.00  0.00     0.157 HD
ATOM    514  H62   A A  22       0.541   7.568  34.614  1.00  0.00     0.157 HD
ATOM    515  N7    A A  22       4.599   8.038  34.480  1.00  0.00    -0.236 NA
ATOM    516 'HO2   A A  22       8.886   3.261  34.775  1.00  0.00     0.210 HD
ATOM    517  C1'   C A  21       7.258  10.929  36.769  1.00  0.00     0.264 C 
ATOM    518  O2'   C A  21       9.516  10.271  36.325  1.00  0.00    -0.388 OA
ATOM    519  N1    C A  21       5.896  10.384  36.908  1.00  0.00    -0.278 N 
ATOM    520  O4'   C A  21       7.169  12.204  36.157  1.00  0.00    -0.353 OA
ATOM    521  C6    C A  21       4.850  10.923  36.212  1.00  0.00     0.102 A 
ATOM    522  C2    C A  21       5.687   9.299  37.764  1.00  0.00     0.352 A 
ATOM    523  C5    C A  21       3.611  10.430  36.332  1.00  0.00     0.067 A 
ATOM    524  C4    C A  21       3.430   9.324  37.211  1.00  0.00     0.128 A 
ATOM    525  N4    C A  21       2.221   8.788  37.374  1.00  0.00    -0.384 N 
ATOM    526  N3    C A  21       4.442   8.791  37.895  1.00  0.00    -0.177 NA
ATOM    527  H41   C A  21       1.428   9.161  36.873  1.00  0.00     0.157 HD
ATOM    528  H42   C A  21       2.107   8.002  37.997  1.00  0.00     0.157 HD
ATOM    529  O2    C A  21       6.652   8.828  38.384  1.00  0.00    -0.244 OA
ATOM    530 'HO2   C A  21      10.016  10.518  35.546  1.00  0.00     0.210 HD
BRANCH 499 531
ATOM    531  O5'   G A  23       7.330   3.115  31.649  1.00  0.00    -0.287 OA
BRANCH 531 532
ATOM    532  C5'   G A  23       6.790   2.287  30.621  1.00  0.00     0.216 C 
BRANCH 532 533
ATOM    533  C4'   G A  23       6.939   0.830  30.989  1.00  0.00     0.180 C 
ATOM    534  C3'   G A  23       5.673  -0.008  30.884  1.00  0.00     0.198 C 
ATOM    535  C2'   G A  23       5.959  -1.152  31.847  1.00  0.00     0.199 C 
ATOM    536  C1'   G A  23       6.714  -0.424  32.960  1.00  0.00     0.262 C 
ATOM    537  N9    G A  23       5.858   0.002  34.062  1.00  0.00    -0.293 N 
ATOM    538  O4'   G A  23       7.316   0.726  32.388  1.00  0.00    -0.353 OA
ATOM    539  C4    G A  23       5.172  -0.818  34.924  1.00  0.00     0.187 A 
ATOM    540  C8    G A  23       5.574   1.290  34.446  1.00  0.00     0.214 A 
ATOM    541  N3    G A  23       5.170  -2.167  34.902  1.00  0.00    -0.044 NA
ATOM    542  C5    G A  23       4.507   0.029  35.785  1.00  0.00     0.173 A 
ATOM    543  C2    G A  23       4.411  -2.674  35.857  1.00  0.00     0.703 A 
ATOM    544  N2    G A  23       4.296  -4.000  35.975  1.00  0.00    -0.233 N 
ATOM    545  N1    G A  23       3.710  -1.922  36.763  1.00  0.00    -0.153 N 
ATOM    546  H21   G A  23       4.796  -4.594  35.328  1.00  0.00     0.174 HD
ATOM    547  H22   G A  23       3.714  -4.404  36.693  1.00  0.00     0.174 HD
ATOM    548  H1    G A  23       3.158  -2.407  37.453  1.00  0.00     0.187 HD
ATOM    549  C6    G A  23       3.697  -0.533  36.807  1.00  0.00     0.292 A 
ATOM    550  O6    G A  23       3.030   0.047  37.670  1.00  0.00    -0.265 OA
ATOM    551  N7    G A  23       4.771   1.356  35.472  1.00  0.00    -0.234 NA
BRANCH 534 552
ATOM    552  O3'   G A  23       5.450  -0.460  29.551  1.00  0.00    -0.279 OA
BRANCH 552 553
ATOM    553  P     A A  24       3.950  -0.760  29.050  1.00  0.00     0.408 P 
ATOM    554  OP1   A A  24       3.026  -0.290  30.115  1.00  0.00    -0.624 OA
ATOM    555  OP2   A A  24       3.879  -2.169  28.588  1.00  0.00    -0.624 OA
BRANCH 553 556
ATOM    556  O5'   A A  24       3.769   0.189  27.782  1.00  0.00    -0.287 OA
BRANCH 556 557
ATOM    557  C5'   A A  24       3.588  -0.355  26.476  1.00  0.00     0.216 C 
BRANCH 557 558
ATOM    558  C4'   A A  24       2.837   0.623  25.603  1.00  0.00     0.180 C 
ATOM    559  C3'   A A  24       2.599   1.997  26.215  1.00  0.00     0.198 C 
ATOM    560  O3'   A A  24       3.708   2.866  25.999  1.00  0.00    -0.279 OA
ATOM    561  C2'   A A  24       1.344   2.465  25.490  1.00  0.00     0.199 C 
ATOM    562  P     T A  25       4.028   4.029  27.064  1.00  0.00     0.408 P 
ATOM    563  OP1   T A  25       5.157   4.827  26.522  1.00  0.00    -0.624 OA
ATOM    564  O5'   T A  25       2.720   4.938  27.049  1.00  0.00    -0.287 OA
ATOM    565  OP2   T A  25       4.147   3.413  28.410  1.00  0.00    -0.624 OA
ATOM    566  C5'   T A  25       2.366   5.699  25.895  1.00  0.00     0.216 C 
ATOM    567  C4'   T A  25       1.140   6.536  26.176  1.00  0.00     0.180 C 
ATOM    568  C3'   T A  25       1.144   7.271  27.509  1.00  0.00     0.198 C 
ATOM    569  O4'   T A  25      -0.019   5.662  26.245  1.00  0.00    -0.353 OA
ATOM    570  O3'   T A  25       1.814   8.524  27.412  1.00  0.00    -0.279 OA
ATOM    571  C2'   T A  25      -0.344   7.429  27.806  1.00  0.00     0.199 C 
ATOM    572  P     C A  26       2.315   9.268  28.748  1.00  0.00     0.408 P 
ATOM    573  OP1   C A  26       3.146  10.423  28.327  1.00  0.00    -0.624 OA
ATOM    574  O5'   C A  26       0.974   9.836  29.397  1.00  0.00    -0.287 OA
ATOM    575  OP2   C A  26       2.885   8.248  29.667  1.00  0.00    -0.624 OA
ATOM    576  C5'   C A  26       0.831   9.945  30.812  1.00  0.00     0.216 C 
ATOM    577  C4'   C A  26      -0.612  10.203  31.173  1.00  0.00     0.180 C 
ATOM    578  C3'   C A  26      -0.900  10.267  32.667  1.00  0.00     0.198 C 
ATOM    579  O4'   C A  26      -1.423   9.102  30.675  1.00  0.00    -0.353 OA
ATOM    580  O3'   C A  26      -0.761  11.595  33.166  1.00  0.00    -0.279 OA
ATOM    581  C2'   C A  26      -2.334   9.760  32.756  1.00  0.00     0.199 C 
ATOM    582  P     A A  27       0.391  11.933  34.238  1.00  0.00     0.408 P 
ATOM    583  OP1   A A  27       0.806  13.340  34.005  1.00  0.00    -0.624 OA
ATOM    584  OP2   A A  27       1.411  10.854  34.208  1.00  0.00    -0.624 OA
ATOM    585  O5'   A A  27      -0.362  11.868  35.640  1.00  0.00    -0.287 OA
ATOM    586  C5'   A A  27      -1.574  12.590  35.856  1.00  0.00     0.216 C 
ATOM    587  C4'   A A  27      -2.249  12.114  37.120  1.00  0.00     0.180 C 
ATOM    588  C3'   A A  27      -1.318  11.604  38.213  1.00  0.00     0.198 C 
ATOM    589  O4'   A A  27      -3.092  10.971  36.804  1.00  0.00    -0.353 OA
ATOM    590  C2'   A A  27      -2.225  10.655  38.984  1.00  0.00     0.199 C 
ATOM    591  O2'   A A  27      -3.144  11.363  39.794  1.00  0.00    -0.388 OA
ATOM    592  C1'   A A  27      -2.988  10.002  37.834  1.00  0.00     0.262 C 
ATOM    593 'HO2   A A  27      -2.693  12.152  40.097  1.00  0.00     0.210 HD
ATOM    594  N9    A A  27      -2.326   8.817  37.291  1.00  0.00    -0.294 N 
ATOM    595  C4    A A  27      -2.383   7.545  37.807  1.00  0.00     0.167 A 
ATOM    596  C8    A A  27      -1.523   8.735  36.179  1.00  0.00     0.214 A 
ATOM    597  N3    A A  27      -3.054   7.138  38.897  1.00  0.00    -0.222 NA
ATOM    598  C5    A A  27      -1.603   6.763  36.973  1.00  0.00     0.149 A 
ATOM    599  C2    A A  27      -2.876   5.835  39.098  1.00  0.00     0.237 A 
ATOM    600  N1    A A  27      -2.158   4.957  38.385  1.00  0.00    -0.222 NA
ATOM    601  C6    A A  27      -1.496   5.399  37.294  1.00  0.00     0.155 A 
ATOM    602  N6    A A  27      -0.782   4.523  36.586  1.00  0.00    -0.382 N 
ATOM    603  H61   A A  27      -0.279   4.830  35.766  1.00  0.00     0.157 HD
ATOM    604  H62   A A  27      -0.745   3.554  36.870  1.00  0.00     0.157 HD
ATOM    605  N7    A A  27      -1.066   7.528  35.946  1.00  0.00    -0.236 NA
ATOM    606  O2'   C A  26      -3.258  10.767  32.390  1.00  0.00    -0.388 OA
ATOM    607  C1'   C A  26      -2.329   8.680  31.677  1.00  0.00     0.264 C 
ATOM    608 'HO2   C A  26      -2.804  11.604  32.489  1.00  0.00     0.210 HD
ATOM    609  N1    C A  26      -1.905   7.353  32.156  1.00  0.00    -0.278 N 
ATOM    610  C6    C A  26      -0.764   6.768  31.680  1.00  0.00     0.102 A 
ATOM    611  C2    C A  26      -2.690   6.694  33.106  1.00  0.00     0.352 A 
ATOM    612  C5    C A  26      -0.376   5.560  32.106  1.00  0.00     0.067 A 
ATOM    613  C4    C A  26      -1.196   4.912  33.074  1.00  0.00     0.128 A 
ATOM    614  N4    C A  26      -0.862   3.708  33.535  1.00  0.00    -0.384 N 
ATOM    615  N3    C A  26      -2.310   5.473  33.547  1.00  0.00    -0.177 NA
ATOM    616  H41   C A  26      -0.027   3.248  33.204  1.00  0.00     0.157 HD
ATOM    617  H42   C A  26      -1.451   3.252  34.218  1.00  0.00     0.157 HD
ATOM    618  O2    C A  26      -3.717   7.245  33.525  1.00  0.00    -0.244 OA
ATOM    619  C1'   T A  25      -0.901   6.115  27.257  1.00  0.00     0.264 C 
ATOM    620  O2'   T A  25      -0.903   8.500  27.070  1.00  0.00    -0.388 OA
ATOM    621  N1    T A  25      -1.027   5.057  28.270  1.00  0.00    -0.280 N 
ATOM    622  C6    T A  25      -0.017   4.145  28.481  1.00  0.00     0.104 A 
ATOM    623  C2    T A  25      -2.197   5.005  29.004  1.00  0.00     0.331 A 
ATOM    624  C5    T A  25      -0.110   3.173  29.393  1.00  0.00     0.092 A 
ATOM    625  C4    T A  25      -1.290   3.055  30.192  1.00  0.00     0.250 A 
ATOM    626  N3    T A  25      -2.256   3.997  29.929  1.00  0.00    -0.275 N 
ATOM    627  O4    T A  25      -1.488   2.215  31.071  1.00  0.00    -0.268 OA
ATOM    628  H3    T A  25      -3.109   3.935  30.467  1.00  0.00     0.173 HD
ATOM    629  O2    T A  25      -3.112   5.793  28.849  1.00  0.00    -0.246 OA
ATOM    630 'HO2   T A  25      -0.279   9.225  27.117  1.00  0.00     0.210 HD
ATOM    631  C1'   A A  24       0.561   1.157  25.384  1.00  0.00     0.262 C 
ATOM    632  O4'   A A  24       1.504   0.100  25.348  1.00  0.00    -0.353 OA
BRANCH 588 633
ATOM    633  O3'   A A  27      -0.817  12.665  39.022  1.00  0.00    -0.279 OA
BRANCH 633 634
ATOM    634  P     G A  28       0.721  12.651  39.491  1.00  0.00     0.408 P 
ATOM    635  OP2   G A  28       0.787  12.169  40.895  1.00  0.00    -0.624 OA
ATOM    636  OP1   G A  28       1.495  11.945  38.438  1.00  0.00    -0.624 OA
BRANCH 634 637
ATOM    637  O5'   G A  28       1.145  14.187  39.467  1.00  0.00    -0.287 OA
BRANCH 637 638
ATOM    638  C5'   G A  28       2.220  14.662  40.275  1.00  0.00     0.216 C 
BRANCH 638 639
ATOM    639  C4'   G A  28       1.724  15.710  41.247  1.00  0.00     0.180 C 
ATOM    640  C3'   G A  28       1.898  15.381  42.721  1.00  0.00     0.198 C 
ATOM    641  C2'   G A  28       0.872  16.299  43.380  1.00  0.00     0.199 C 
ATOM    642  O2'   G A  28       1.374  17.617  43.495  1.00  0.00    -0.388 OA
ATOM    643  C1'   G A  28      -0.256  16.294  42.345  1.00  0.00     0.262 C 
ATOM    644 'HO2   G A  28       2.317  17.566  43.337  1.00  0.00     0.210 HD
ATOM    645  O4'   G A  28       0.289  15.866  41.110  1.00  0.00    -0.353 OA
ATOM    646  N9    G A  28      -1.365  15.410  42.695  1.00  0.00    -0.293 N 
ATOM    647  C8    G A  28      -1.761  14.271  42.036  1.00  0.00     0.214 A 
ATOM    648  C4    G A  28      -2.221  15.557  43.759  1.00  0.00     0.187 A 
ATOM    649  N7    G A  28      -2.791  13.690  42.586  1.00  0.00    -0.234 NA
ATOM    650  C5    G A  28      -3.093  14.493  43.679  1.00  0.00     0.173 A 
ATOM    651  C6    G A  28      -4.112  14.369  44.660  1.00  0.00     0.292 A 
ATOM    652  O6    G A  28      -4.983  13.497  44.764  1.00  0.00    -0.265 OA
ATOM    653  N1    G A  28      -4.056  15.402  45.589  1.00  0.00    -0.153 N 
ATOM    654  C2    G A  28      -3.140  16.422  45.577  1.00  0.00     0.703 A 
ATOM    655  H1    G A  28      -4.744  15.398  46.326  1.00  0.00     0.187 HD
ATOM    656  N3    G A  28      -2.187  16.550  44.673  1.00  0.00    -0.044 NA
ATOM    657  N2    G A  28      -3.248  17.320  46.560  1.00  0.00    -0.233 N 
ATOM    658  H21   G A  28      -2.597  18.090  46.596  1.00  0.00     0.174 HD
ATOM    659  H22   G A  28      -3.973  17.232  47.257  1.00  0.00     0.174 HD
BRANCH 640 660
ATOM    660  O3'   G A  28       3.228  15.644  43.163  1.00  0.00    -0.279 OA
BRANCH 660 661
ATOM    661  P     A A  29       4.122  14.447  43.763  1.00  0.00     0.408 P 
ATOM    662  OP2   A A  29       4.688  13.670  42.632  1.00  0.00    -0.624 OA
ATOM    663  OP1   A A  29       5.034  15.047  44.770  1.00  0.00    -0.624 OA
BRANCH 661 664
ATOM    664  O5'   A A  29       3.072  13.527  44.532  1.00  0.00    -0.287 OA
BRANCH 664 665
ATOM    665  C5'   A A  29       2.691  12.255  44.010  1.00  0.00     0.216 C 
BRANCH 665 666
ATOM    666  C4'   A A  29       3.393  11.149  44.763  1.00  0.00     0.180 C 
ATOM    667  O4'   A A  29       2.440  10.484  45.633  1.00  0.00    -0.353 OA
ATOM    668  C1'   A A  29       2.787   9.116  45.756  1.00  0.00     0.262 C 
ATOM    669  N9    A A  29       1.629   8.311  45.362  1.00  0.00    -0.294 N 
ATOM    670  C2'   A A  29       4.032   8.866  44.902  1.00  0.00     0.199 C 
ATOM    671  C8    A A  29       0.590   8.673  44.539  1.00  0.00     0.214 A 
ATOM    672  C4    A A  29       1.366   7.020  45.754  1.00  0.00     0.167 A 
ATOM    673  N7    A A  29      -0.306   7.730  44.377  1.00  0.00    -0.236 NA
ATOM    674  C5    A A  29       0.174   6.676  45.142  1.00  0.00     0.149 A 
ATOM    675  C6    A A  29      -0.319   5.382  45.390  1.00  0.00     0.155 A 
ATOM    676  N6    A A  29      -1.454   4.909  44.873  1.00  0.00    -0.382 N 
ATOM    677  N1    A A  29       0.404   4.578  46.199  1.00  0.00    -0.222 NA
ATOM    678  H62   A A  29      -1.756   3.969  45.088  1.00  0.00     0.157 HD
ATOM    679  H61   A A  29      -2.011   5.494  44.265  1.00  0.00     0.157 HD
ATOM    680  C2    A A  29       1.544   5.053  46.722  1.00  0.00     0.237 A 
ATOM    681  N3    A A  29       2.109   6.247  46.565  1.00  0.00    -0.222 NA
ATOM    682  O2'   A A  29       5.175   8.979  45.729  1.00  0.00    -0.388 OA
ATOM    683  C3'   A A  29       3.957  10.023  43.911  1.00  0.00     0.198 C 
ATOM    684 'HO2   A A  29       5.813   9.498  45.241  1.00  0.00     0.210 HD
ATOM    685  O3'   A A  29       5.232  10.365  43.374  1.00  0.00    -0.279 OA
ATOM    686  P     A A  30       5.725   9.702  41.993  1.00  0.00     0.408 P 
ATOM    687  O5'   A A  30       6.159   8.225  42.407  1.00  0.00    -0.287 OA
ATOM    688  OP2   A A  30       4.564   9.605  41.072  1.00  0.00    -0.624 OA
ATOM    689  OP1   A A  30       6.937  10.448  41.571  1.00  0.00    -0.624 OA
ATOM    690  C5'   A A  30       7.218   8.004  43.336  1.00  0.00     0.216 C 
ATOM    691  C4'   A A  30       7.313   6.536  43.682  1.00  0.00     0.180 C 
ATOM    692  C3'   A A  30       7.323   5.576  42.503  1.00  0.00     0.198 C 
ATOM    693  O4'   A A  30       6.135   6.144  44.431  1.00  0.00    -0.353 OA
ATOM    694  O3'   A A  30       8.625   5.463  41.934  1.00  0.00    -0.279 OA
ATOM    695  C2'   A A  30       6.847   4.270  43.134  1.00  0.00     0.199 C 
ATOM    696  P     G A  31       8.807   4.833  40.465  1.00  0.00     0.408 P 
ATOM    697  O5'   G A  31       8.603   3.267  40.694  1.00  0.00    -0.287 OA
ATOM    698  OP1   G A  31      10.220   5.058  40.072  1.00  0.00    -0.624 OA
ATOM    699  OP2   G A  31       7.714   5.337  39.593  1.00  0.00    -0.624 OA
ATOM    700  C5'   G A  31       7.411   2.603  40.269  1.00  0.00     0.216 C 
ATOM    701  C4'   G A  31       7.631   1.937  38.929  1.00  0.00     0.180 C 
ATOM    702  O4'   G A  31       8.740   2.598  38.256  1.00  0.00    -0.353 OA
ATOM    703  C3'   G A  31       8.016   0.462  38.992  1.00  0.00     0.198 C 
ATOM    704  C1'   G A  31       9.630   1.631  37.735  1.00  0.00     0.262 C 
ATOM    705  C2'   G A  31       8.902   0.289  37.764  1.00  0.00     0.199 C 
ATOM    706  N9    G A  31      10.858   1.667  38.524  1.00  0.00    -0.293 N 
ATOM    707  O2'   G A  31       8.129   0.165  36.585  1.00  0.00    -0.388 OA
ATOM    708 'HO2   G A  31       7.214   0.095  36.861  1.00  0.00     0.210 HD
ATOM    709  C4    G A  31      11.386   0.642  39.275  1.00  0.00     0.187 A 
ATOM    710  C8    G A  31      11.717   2.730  38.666  1.00  0.00     0.214 A 
ATOM    711  N3    G A  31      10.857  -0.590  39.417  1.00  0.00    -0.044 NA
ATOM    712  C5    G A  31      12.542   1.151  39.827  1.00  0.00     0.173 A 
ATOM    713  C2    G A  31      11.594  -1.357  40.198  1.00  0.00     0.703 A 
ATOM    714  N2    G A  31      11.208  -2.612  40.446  1.00  0.00    -0.233 N 
ATOM    715  N1    G A  31      12.759  -0.951  40.796  1.00  0.00    -0.153 N 
ATOM    716  H22   G A  31      11.759  -3.214  41.039  1.00  0.00     0.174 HD
ATOM    717  H21   G A  31      10.355  -2.951  40.025  1.00  0.00     0.174 HD
ATOM    718  C6    G A  31      13.324   0.312  40.667  1.00  0.00     0.292 A 
ATOM    719  H1    G A  31      13.250  -1.615  41.373  1.00  0.00     0.187 HD
ATOM    720  O6    G A  31      14.379   0.575  41.254  1.00  0.00    -0.265 OA
ATOM    721  N7    G A  31      12.738   2.468  39.435  1.00  0.00    -0.234 NA
ATOM    722  O2'   A A  30       7.909   3.599  43.786  1.00  0.00    -0.388 OA
ATOM    723  C1'   A A  30       5.867   4.773  44.199  1.00  0.00     0.262 C 
ATOM    724 'HO2   A A  30       8.707   3.800  43.296  1.00  0.00     0.210 HD
ATOM    725  N9    A A  30       4.465   4.635  43.807  1.00  0.00    -0.294 N 
ATOM    726  C8    A A  30       3.711   5.491  43.042  1.00  0.00     0.214 A 
ATOM    727  C4    A A  30       3.630   3.595  44.137  1.00  0.00     0.167 A 
ATOM    728  N7    A A  30       2.479   5.084  42.853  1.00  0.00    -0.236 NA
ATOM    729  C5    A A  30       2.416   3.881  43.543  1.00  0.00     0.149 A 
ATOM    730  C6    A A  30       1.378   2.948  43.730  1.00  0.00     0.155 A 
ATOM    731  N6    A A  30       0.156   3.084  43.216  1.00  0.00    -0.382 N 
ATOM    732  N1    A A  30       1.646   1.852  44.474  1.00  0.00    -0.222 NA
ATOM    733  H61   A A  30      -0.066   3.895  42.656  1.00  0.00     0.157 HD
ATOM    734  H62   A A  30      -0.547   2.376  43.378  1.00  0.00     0.157 HD
ATOM    735  C2    A A  30       2.874   1.713  44.990  1.00  0.00     0.237 A 
ATOM    736  N3    A A  30       3.930   2.516  44.882  1.00  0.00    -0.222 NA
BRANCH 703 737
ATOM    737  O3'   G A  31       6.862  -0.376  38.954  1.00  0.00    -0.279 OA
BRANCH 737 738
ATOM    738  P     G A  32       6.336  -1.084  40.300  1.00  0.00     0.408 P 
ATOM    739  OP2   G A  32       7.341  -0.835  41.365  1.00  0.00    -0.624 OA
ATOM    740  OP1   G A  32       4.922  -0.682  40.520  1.00  0.00    -0.624 OA
BRANCH 738 741
ATOM    741  O5'   G A  32       6.367  -2.641  39.954  1.00  0.00    -0.287 OA
BRANCH 741 742
ATOM    742  C5'   G A  32       5.400  -3.538  40.499  1.00  0.00     0.216 C 
BRANCH 742 743
ATOM    743  C4'   G A  32       4.392  -3.924  39.442  1.00  0.00     0.180 C 
ATOM    744  C3'   G A  32       2.931  -3.819  39.864  1.00  0.00     0.198 C 
ATOM    745  C2'   G A  32       2.256  -4.896  39.025  1.00  0.00     0.199 C 
ATOM    746  O3'   G A  32       2.405  -2.521  39.600  1.00  0.00    -0.279 OA
ATOM    747  O2'   G A  32       2.030  -4.446  37.703  1.00  0.00    -0.388 OA
ATOM    748  C1'   G A  32       3.338  -5.975  38.998  1.00  0.00     0.262 C 
ATOM    749 'HO2   G A  32       1.953  -3.492  37.748  1.00  0.00     0.210 HD
ATOM    750  N9    G A  32       3.233  -6.945  40.083  1.00  0.00    -0.293 N 
ATOM    751  O4'   G A  32       4.590  -5.325  39.103  1.00  0.00    -0.353 OA
ATOM    752  C4    G A  32       2.188  -7.807  40.308  1.00  0.00     0.187 A 
ATOM    753  C8    G A  32       4.150  -7.180  41.079  1.00  0.00     0.214 A 
ATOM    754  C5    G A  32       2.538  -8.521  41.435  1.00  0.00     0.173 A 
ATOM    755  N3    G A  32       1.069  -7.908  39.561  1.00  0.00    -0.044 NA
ATOM    756  N7    G A  32       3.779  -8.116  41.909  1.00  0.00    -0.234 NA
ATOM    757  C6    G A  32       1.643  -9.508  41.923  1.00  0.00     0.292 A 
ATOM    758  N1    G A  32       0.500  -9.594  41.138  1.00  0.00    -0.153 N 
ATOM    759  O6    G A  32       1.769 -10.245  42.907  1.00  0.00    -0.265 OA
ATOM    760  H1    G A  32      -0.195 -10.272  41.407  1.00  0.00     0.187 HD
ATOM    761  C2    G A  32       0.247  -8.830  40.027  1.00  0.00     0.703 A 
ATOM    762  N2    G A  32      -0.910  -9.061  39.404  1.00  0.00    -0.233 N 
ATOM    763  H21   G A  32      -1.143  -8.524  38.582  1.00  0.00     0.174 HD
ATOM    764  H22   G A  32      -1.546  -9.767  39.751  1.00  0.00     0.174 HD
ATOM    765  P     C A  33       1.305  -1.885  40.587  1.00  0.00     0.408 P 
ATOM    766  O5'   C A  33       0.064  -2.879  40.478  1.00  0.00    -0.287 OA
ATOM    767  OP2   C A  33       1.834  -1.951  41.973  1.00  0.00    -0.624 OA
ATOM    768  OP1   C A  33       0.907  -0.574  40.016  1.00  0.00    -0.624 OA
ATOM    769  C5'   C A  33      -0.843  -2.803  39.379  1.00  0.00     0.216 C 
ATOM    770  C4'   C A  33      -1.934  -3.840  39.525  1.00  0.00     0.180 C 
ATOM    771  C3'   C A  33      -2.823  -3.696  40.752  1.00  0.00     0.198 C 
ATOM    772  O4'   C A  33      -1.328  -5.149  39.681  1.00  0.00    -0.353 OA
ATOM    773  O3'   C A  33      -3.868  -2.753  40.530  1.00  0.00    -0.279 OA
ATOM    774  C2'   C A  33      -3.349  -5.115  40.945  1.00  0.00     0.199 C 
ATOM    775  P     T A  34      -4.676  -2.139  41.781  1.00  0.00     0.408 P 
ATOM    776  OP2   T A  34      -3.720  -1.402  42.647  1.00  0.00    -0.624 OA
ATOM    777  OP1   T A  34      -5.862  -1.433  41.232  1.00  0.00    -0.624 OA
ATOM    778  O5'   T A  34      -5.186  -3.419  42.583  1.00  0.00    -0.287 OA
ATOM    779  C5'   T A  34      -6.237  -4.237  42.070  1.00  0.00     0.216 C 
ATOM    780  C4'   T A  34      -6.732  -5.185  43.139  1.00  0.00     0.180 C 
ATOM    781  C3'   T A  34      -6.947  -4.573  44.514  1.00  0.00     0.198 C 
ATOM    782  O4'   T A  34      -5.733  -6.213  43.365  1.00  0.00    -0.353 OA
ATOM    783  C2'   T A  34      -6.837  -5.785  45.434  1.00  0.00     0.199 C 
ATOM    784  O3'   T A  34      -8.217  -3.932  44.605  1.00  0.00    -0.279 OA
ATOM    785  O2'   T A  34      -8.043  -6.525  45.439  1.00  0.00    -0.388 OA
ATOM    786  C1'   T A  34      -5.756  -6.607  44.726  1.00  0.00     0.264 C 
ATOM    787 'HO2   T A  34      -8.707  -5.952  45.054  1.00  0.00     0.210 HD
ATOM    788  N1    T A  34      -4.409  -6.418  45.284  1.00  0.00    -0.280 N 
ATOM    789  C2    T A  34      -3.878  -7.441  46.049  1.00  0.00     0.331 A 
ATOM    790  C6    T A  34      -3.698  -5.261  45.056  1.00  0.00     0.104 A 
ATOM    791  N3    T A  34      -2.622  -7.202  46.545  1.00  0.00    -0.275 N 
ATOM    792  O2    T A  34      -4.471  -8.482  46.269  1.00  0.00    -0.246 OA
ATOM    793  H3    T A  34      -2.219  -7.932  47.114  1.00  0.00     0.173 HD
ATOM    794  C4    T A  34      -1.858  -6.073  46.359  1.00  0.00     0.250 A 
ATOM    795  C5    T A  34      -2.474  -5.063  45.557  1.00  0.00     0.092 A 
ATOM    796  O4    T A  34      -0.740  -6.009  46.872  1.00  0.00    -0.268 OA
ATOM    797  P     G A  35      -8.300  -2.368  44.969  1.00  0.00     0.408 P 
ATOM    798  OP1   G A  35      -9.713  -1.950  44.780  1.00  0.00    -0.624 OA
ATOM    799  O5'   G A  35      -7.969  -2.317  46.528  1.00  0.00    -0.287 OA
ATOM    800  OP2   G A  35      -7.221  -1.652  44.238  1.00  0.00    -0.624 OA
ATOM    801  C5'   G A  35      -8.535  -3.266  47.431  1.00  0.00     0.216 C 
ATOM    802  C4'   G A  35      -8.050  -3.002  48.839  1.00  0.00     0.180 C 
ATOM    803  C3'   G A  35      -7.775  -1.541  49.173  1.00  0.00     0.198 C 
ATOM    804  O4'   G A  35      -6.774  -3.674  49.030  1.00  0.00    -0.353 OA
ATOM    805  O3'   G A  35      -8.948  -0.876  49.628  1.00  0.00    -0.279 OA
ATOM    806  C2'   G A  35      -6.704  -1.649  50.250  1.00  0.00     0.199 C 
ATOM    807  P     C A  36      -9.405   0.497  48.930  1.00  0.00     0.408 P 
ATOM    808  OP1   C A  36     -10.573   1.011  49.689  1.00  0.00    -0.624 OA
ATOM    809  O5'   C A  36      -8.177   1.480  49.183  1.00  0.00    -0.287 OA
ATOM    810  OP2   C A  36      -9.524   0.266  47.468  1.00  0.00    -0.624 OA
ATOM    811  C5'   C A  36      -7.716   1.755  50.506  1.00  0.00     0.216 C 
ATOM    812  C4'   C A  36      -6.718   2.886  50.486  1.00  0.00     0.180 C 
ATOM    813  C3'   C A  36      -6.985   3.981  49.463  1.00  0.00     0.198 C 
ATOM    814  O4'   C A  36      -5.414   2.362  50.113  1.00  0.00    -0.353 OA
ATOM    815  O3'   C A  36      -7.917   4.942  49.953  1.00  0.00    -0.279 OA
ATOM    816  C2'   C A  36      -5.598   4.569  49.248  1.00  0.00     0.199 C 
ATOM    817  P     G A  37      -8.805   5.795  48.917  1.00  0.00     0.408 P 
ATOM    818  O5'   G A  37      -7.781   6.860  48.319  1.00  0.00    -0.287 OA
ATOM    819  OP2   G A  37      -9.240   4.899  47.815  1.00  0.00    -0.624 OA
ATOM    820  OP1   G A  37      -9.823   6.528  49.711  1.00  0.00    -0.624 OA
ATOM    821  C5'   G A  37      -7.153   7.831  49.157  1.00  0.00     0.216 C 
ATOM    822  C4'   G A  37      -6.643   8.986  48.327  1.00  0.00     0.180 C 
ATOM    823  C3'   G A  37      -7.447   9.291  47.069  1.00  0.00     0.198 C 
ATOM    824  O4'   G A  37      -5.306   8.663  47.853  1.00  0.00    -0.353 OA
ATOM    825  O3'   G A  37      -8.504  10.209  47.333  1.00  0.00    -0.279 OA
ATOM    826  C2'   G A  37      -6.392   9.870  46.135  1.00  0.00     0.199 C 
ATOM    827  P     T A  38      -9.800  10.230  46.381  1.00  0.00     0.408 P 
ATOM    828  OP2   T A  38     -10.292   8.838  46.224  1.00  0.00    -0.624 OA
ATOM    829  OP1   T A  38     -10.715  11.277  46.903  1.00  0.00    -0.624 OA
ATOM    830  O5'   T A  38      -9.236  10.721  44.973  1.00  0.00    -0.287 OA
ATOM    831  C5'   T A  38      -8.698  12.033  44.815  1.00  0.00     0.216 C 
ATOM    832  C4'   T A  38      -8.192  12.223  43.404  1.00  0.00     0.180 C 
ATOM    833  C3'   T A  38      -9.160  11.827  42.300  1.00  0.00     0.198 C 
ATOM    834  O4'   T A  38      -7.039  11.364  43.192  1.00  0.00    -0.353 OA
ATOM    835  O3'   T A  38     -10.083  12.873  42.008  1.00  0.00    -0.279 OA
ATOM    836  C2'   T A  38      -8.219  11.536  41.137  1.00  0.00     0.199 C 
ATOM    837  P     G A  39     -11.517  12.518  41.371  1.00  0.00     0.408 P 
ATOM    838  O5'   G A  39     -11.161  11.849  39.969  1.00  0.00    -0.287 OA
ATOM    839  OP2   G A  39     -12.171  11.495  42.226  1.00  0.00    -0.624 OA
ATOM    840  OP1   G A  39     -12.210  13.805  41.107  1.00  0.00    -0.624 OA
ATOM    841  C5'   G A  39     -10.469  12.584  38.961  1.00  0.00     0.216 C 
ATOM    842  C4'   G A  39     -10.182  11.699  37.771  1.00  0.00     0.180 C 
ATOM    843  O4'   G A  39      -9.164  10.726  38.122  1.00  0.00    -0.353 OA
ATOM    844  C3'   G A  39     -11.337  10.833  37.292  1.00  0.00     0.198 C 
ATOM    845  C1'   G A  39      -9.349   9.555  37.345  1.00  0.00     0.262 C 
ATOM    846  N9    G A  39      -9.416   8.406  38.244  1.00  0.00    -0.293 N 
ATOM    847  C2'   G A  39     -10.616   9.744  36.506  1.00  0.00     0.199 C 
ATOM    848  C4    G A  39      -9.192   7.093  37.907  1.00  0.00     0.187 A 
ATOM    849  C8    G A  39      -9.719   8.414  39.584  1.00  0.00     0.214 A 
ATOM    850  N3    G A  39      -8.864   6.633  36.681  1.00  0.00    -0.044 NA
ATOM    851  C5    G A  39      -9.376   6.379  39.072  1.00  0.00     0.173 A 
ATOM    852  C2    G A  39      -8.717   5.321  36.669  1.00  0.00     0.703 A 
ATOM    853  N1    G A  39      -8.878   4.520  37.770  1.00  0.00    -0.153 N 
ATOM    854  N2    G A  39      -8.392   4.703  35.532  1.00  0.00    -0.233 N 
ATOM    855  C6    G A  39      -9.213   4.968  39.042  1.00  0.00     0.292 A 
ATOM    856  H1    G A  39      -8.742   3.528  37.648  1.00  0.00     0.187 HD
ATOM    857  O6    G A  39      -9.334   4.157  39.967  1.00  0.00    -0.265 OA
ATOM    858  H22   G A  39      -8.284   3.697  35.508  1.00  0.00     0.174 HD
ATOM    859  H21   G A  39      -8.262   5.247  34.692  1.00  0.00     0.174 HD
ATOM    860  N7    G A  39      -9.706   7.225  40.122  1.00  0.00    -0.234 NA
ATOM    861  C1'   T A  38      -7.052  10.868  41.863  1.00  0.00     0.264 C 
ATOM    862  O2'   T A  38      -7.757  12.737  40.547  1.00  0.00    -0.388 OA
ATOM    863  N1    T A  38      -7.145   9.402  41.915  1.00  0.00    -0.280 N 
ATOM    864  C6    T A  38      -7.762   8.759  42.966  1.00  0.00     0.104 A 
ATOM    865  C2    T A  38      -6.591   8.685  40.870  1.00  0.00     0.331 A 
ATOM    866  C5    T A  38      -7.854   7.427  43.034  1.00  0.00     0.092 A 
ATOM    867  C4    T A  38      -7.305   6.617  41.993  1.00  0.00     0.250 A 
ATOM    868  N3    T A  38      -6.709   7.323  40.973  1.00  0.00    -0.275 N 
ATOM    869  O4    T A  38      -7.311   5.387  41.951  1.00  0.00    -0.268 OA
ATOM    870  H3    T A  38      -6.329   6.781  40.212  1.00  0.00     0.173 HD
ATOM    871  O2    T A  38      -6.035   9.214  39.924  1.00  0.00    -0.246 OA
ATOM    872 'HO2   T A  38      -8.292  13.443  40.912  1.00  0.00     0.210 HD
ATOM    873  O2'   G A  37      -6.088  11.211  46.474  1.00  0.00    -0.388 OA
ATOM    874  C1'   G A  37      -5.192   8.992  46.481  1.00  0.00     0.262 C 
ATOM    875 'HO2   G A  37      -6.801  11.523  47.031  1.00  0.00     0.210 HD
ATOM    876  N9    G A  37      -5.128   7.750  45.715  1.00  0.00    -0.293 N 
ATOM    877  C8    G A  37      -5.640   6.529  46.077  1.00  0.00     0.214 A 
ATOM    878  C4    G A  37      -4.536   7.572  44.488  1.00  0.00     0.187 A 
ATOM    879  N7    G A  37      -5.417   5.594  45.195  1.00  0.00    -0.234 NA
ATOM    880  C5    G A  37      -4.719   6.240  44.182  1.00  0.00     0.173 A 
ATOM    881  C6    G A  37      -4.206   5.744  42.956  1.00  0.00     0.292 A 
ATOM    882  O6    G A  37      -4.265   4.595  42.502  1.00  0.00    -0.265 OA
ATOM    883  N1    G A  37      -3.565   6.741  42.229  1.00  0.00    -0.153 N 
ATOM    884  C2    G A  37      -3.439   8.047  42.627  1.00  0.00     0.703 A 
ATOM    885  H1    G A  37      -3.164   6.481  41.342  1.00  0.00     0.187 HD
ATOM    886  N3    G A  37      -3.913   8.524  43.763  1.00  0.00    -0.044 NA
ATOM    887  N2    G A  37      -2.789   8.857  41.789  1.00  0.00    -0.233 N 
ATOM    888  H21   G A  37      -2.666   9.828  42.033  1.00  0.00     0.174 HD
ATOM    889  H22   G A  37      -2.421   8.502  40.916  1.00  0.00     0.174 HD
ATOM    890  O2'   C A  36      -5.237   5.428  50.313  1.00  0.00    -0.388 OA
ATOM    891  C1'   C A  36      -4.729   3.313  49.315  1.00  0.00     0.264 C 
ATOM    892 'HO2   C A  36      -6.056   5.766  50.679  1.00  0.00     0.210 HD
ATOM    893  N1    C A  36      -4.461   2.713  47.996  1.00  0.00    -0.278 N 
ATOM    894  C6    C A  36      -5.061   1.545  47.614  1.00  0.00     0.102 A 
ATOM    895  C2    C A  36      -3.576   3.363  47.133  1.00  0.00     0.352 A 
ATOM    896  C5    C A  36      -4.818   1.002  46.413  1.00  0.00     0.067 A 
ATOM    897  C4    C A  36      -3.914   1.693  45.553  1.00  0.00     0.128 A 
ATOM    898  N4    C A  36      -3.632   1.206  44.345  1.00  0.00    -0.384 N 
ATOM    899  N3    C A  36      -3.325   2.831  45.917  1.00  0.00    -0.177 NA
ATOM    900  H41   C A  36      -4.056   0.346  44.029  1.00  0.00     0.157 HD
ATOM    901  H42   C A  36      -2.986   1.702  43.746  1.00  0.00     0.157 HD
ATOM    902  O2    C A  36      -3.042   4.415  47.505  1.00  0.00    -0.244 OA
ATOM    903  C1'   G A  35      -5.877  -2.814  49.711  1.00  0.00     0.262 C 
ATOM    904  O2'   G A  35      -7.266  -2.016  51.496  1.00  0.00    -0.388 OA
ATOM    905  N9    G A  35      -4.834  -2.402  48.777  1.00  0.00    -0.293 N 
ATOM    906  C4    G A  35      -3.955  -1.359  48.943  1.00  0.00     0.187 A 
ATOM    907  C8    G A  35      -4.537  -2.968  47.561  1.00  0.00     0.214 A 
ATOM    908  C5    G A  35      -3.175  -1.353  47.805  1.00  0.00     0.173 A 
ATOM    909  N3    G A  35      -3.898  -0.532  50.007  1.00  0.00    -0.044 NA
ATOM    910  N7    G A  35      -3.553  -2.374  46.943  1.00  0.00    -0.234 NA
ATOM    911  C6    G A  35      -2.158  -0.370  47.680  1.00  0.00     0.292 A 
ATOM    912  N1    G A  35      -2.119   0.468  48.789  1.00  0.00    -0.153 N 
ATOM    913  O6    G A  35      -1.364  -0.194  46.751  1.00  0.00    -0.265 OA
ATOM    914  C2    G A  35      -2.948   0.375  49.877  1.00  0.00     0.703 A 
ATOM    915  H1    G A  35      -1.424   1.197  48.789  1.00  0.00     0.187 HD
ATOM    916  N2    G A  35      -2.756   1.276  50.843  1.00  0.00    -0.233 N 
ATOM    917  H21   G A  35      -3.345   1.247  51.662  1.00  0.00     0.174 HD
ATOM    918  H22   G A  35      -2.037   1.978  50.760  1.00  0.00     0.174 HD
ATOM    919 'HO2   G A  35      -8.176  -1.721  51.478  1.00  0.00     0.210 HD
ATOM    920  C1'   C A  33      -2.141  -5.953  40.518  1.00  0.00     0.264 C 
ATOM    921  O2'   C A  33      -4.419  -5.387  40.060  1.00  0.00    -0.388 OA
ATOM    922  N1    C A  33      -1.324  -6.429  41.647  1.00  0.00    -0.278 N 
ATOM    923  C2    C A  33      -1.784  -7.511  42.401  1.00  0.00     0.352 A 
ATOM    924  C6    C A  33      -0.137  -5.826  41.958  1.00  0.00     0.102 A 
ATOM    925  O2    C A  33      -2.861  -8.043  42.098  1.00  0.00    -0.244 OA
ATOM    926  N3    C A  33      -1.045  -7.954  43.442  1.00  0.00    -0.177 NA
ATOM    927  C4    C A  33       0.112  -7.361  43.737  1.00  0.00     0.128 A 
ATOM    928  C5    C A  33       0.608  -6.257  42.984  1.00  0.00     0.067 A 
ATOM    929 'HO2   C A  33      -4.594  -4.578  39.579  1.00  0.00     0.210 HD
BRANCH 847 930
ATOM    930  O2'   G A  39     -10.244  10.207  35.222  1.00  0.00    -0.388 OA
ATOM    931 'HO2   G A  39      -9.290  10.279  35.225  1.00  0.00     0.210 HD
ENDBRANCH 847 930
BRANCH 844 932
ATOM    932  O3'   G A  39     -12.254  11.571  36.487  1.00  0.00    -0.279 OA
BRANCH 932 933
ATOM    933  P     G A  40     -11.804  12.977  35.849  1.00  0.00     0.408 P 
ATOM    934  OP2   G A  40     -12.368  13.071  34.479  1.00  0.00    -0.624 OA
ATOM    935  OP1   G A  40     -12.117  14.033  36.845  1.00  0.00    -0.624 OA
BRANCH 933 936
ATOM    936  O5'   G A  40     -10.219  12.859  35.731  1.00  0.00    -0.287 OA
BRANCH 936 937
ATOM    937  C5'   G A  40      -9.506  13.542  34.702  1.00  0.00     0.216 C 
BRANCH 937 938
ATOM    938  C4'   G A  40      -9.385  12.664  33.478  1.00  0.00     0.180 C 
ATOM    939  C3'   G A  40      -7.966  12.290  33.074  1.00  0.00     0.198 C 
ATOM    940  C2'   G A  40      -8.118  12.012  31.585  1.00  0.00     0.199 C 
ATOM    941  C1'   G A  40      -9.110  13.105  31.187  1.00  0.00     0.262 C 
ATOM    942  O2'   G A  40      -8.718  10.747  31.363  1.00  0.00    -0.388 OA
ATOM    943  N9    G A  40      -8.470  14.346  30.762  1.00  0.00    -0.293 N 
ATOM    944  O4'   G A  40      -9.910  13.380  32.324  1.00  0.00    -0.353 OA
ATOM    945  C8    G A  40      -8.167  15.432  31.546  1.00  0.00     0.214 A 
ATOM    946  C4    G A  40      -8.048  14.658  29.492  1.00  0.00     0.187 A 
ATOM    947  N7    G A  40      -7.591  16.400  30.887  1.00  0.00    -0.234 NA
ATOM    948  C5    G A  40      -7.508  15.923  29.585  1.00  0.00     0.173 A 
ATOM    949  C6    G A  40      -6.976  16.528  28.417  1.00  0.00     0.292 A 
ATOM    950  N1    G A  40      -7.094  15.694  27.311  1.00  0.00    -0.153 N 
ATOM    951  O6    G A  40      -6.455  17.642  28.291  1.00  0.00    -0.265 OA
ATOM    952  C2    G A  40      -7.650  14.441  27.326  1.00  0.00     0.703 A 
ATOM    953  H1    G A  40      -6.742  16.045  26.435  1.00  0.00     0.187 HD
ATOM    954  N2    G A  40      -7.665  13.791  26.160  1.00  0.00    -0.233 N 
ATOM    955  N3    G A  40      -8.152  13.866  28.403  1.00  0.00    -0.044 NA
ATOM    956  H21   G A  40      -8.061  12.865  26.121  1.00  0.00     0.174 HD
ATOM    957  H22   G A  40      -7.284  14.215  25.326  1.00  0.00     0.174 HD
ATOM    958 'HO2   G A  40      -8.464  10.194  32.102  1.00  0.00     0.210 HD
BRANCH 939 959
ATOM    959  O3'   G A  40      -7.493  11.156  33.796  1.00  0.00    -0.279 OA
BRANCH 959 960
ATOM    960  P     A A  41      -6.085  11.236  34.571  1.00  0.00     0.408 P 
ATOM    961  OP2   A A  41      -6.336  11.716  35.953  1.00  0.00    -0.624 OA
ATOM    962  OP1   A A  41      -5.394   9.938  34.359  1.00  0.00    -0.624 OA
BRANCH 960 963
ATOM    963  O5'   A A  41      -5.277  12.363  33.783  1.00  0.00    -0.287 OA
BRANCH 963 964
ATOM    964  C5'   A A  41      -5.581  13.747  33.959  1.00  0.00     0.216 C 
BRANCH 964 965
ATOM    965  C4'   A A  41      -4.458  14.438  34.697  1.00  0.00     0.180 C 
ATOM    966  O4'   A A  41      -3.990  15.553  33.890  1.00  0.00    -0.353 OA
ATOM    967  C1'   A A  41      -3.740  16.674  34.719  1.00  0.00     0.262 C 
ATOM    968  C2'   A A  41      -3.861  16.214  36.170  1.00  0.00     0.199 C 
ATOM    969  N9    A A  41      -4.679  17.734  34.351  1.00  0.00    -0.294 N 
ATOM    970  O2'   A A  41      -2.593  15.766  36.610  1.00  0.00    -0.388 OA
ATOM    971  C3'   A A  41      -4.839  15.051  36.039  1.00  0.00     0.198 C 
ATOM    972 'HO2   A A  41      -2.754  15.044  37.217  1.00  0.00     0.210 HD
ATOM    973  O3'   A A  41      -4.698  14.107  37.099  1.00  0.00    -0.279 OA
ATOM    974  P     A A  42      -5.791  14.057  38.278  1.00  0.00     0.408 P 
ATOM    975  OP1   A A  42      -5.424  12.930  39.174  1.00  0.00    -0.624 OA
ATOM    976  O5'   A A  42      -5.564  15.417  39.079  1.00  0.00    -0.287 OA
ATOM    977  OP2   A A  42      -7.143  14.096  37.669  1.00  0.00    -0.624 OA
ATOM    978  C5'   A A  42      -4.432  15.587  39.933  1.00  0.00     0.216 C 
ATOM    979  C4'   A A  42      -4.161  17.058  40.158  1.00  0.00     0.180 C 
ATOM    980  C3'   A A  42      -5.236  17.813  40.931  1.00  0.00     0.198 C 
ATOM    981  O4'   A A  42      -4.088  17.725  38.867  1.00  0.00    -0.353 OA
ATOM    982  O3'   A A  42      -5.016  17.740  42.338  1.00  0.00    -0.279 OA
ATOM    983  C2'   A A  42      -5.092  19.233  40.395  1.00  0.00     0.199 C 
ATOM    984  P     T A  43      -6.245  17.967  43.352  1.00  0.00     0.408 P 
ATOM    985  OP1   T A  43      -5.704  17.873  44.732  1.00  0.00    -0.624 OA
ATOM    986  O5'   T A  43      -6.691  19.476  43.094  1.00  0.00    -0.287 OA
ATOM    987  OP2   T A  43      -7.362  17.079  42.940  1.00  0.00    -0.624 OA
ATOM    988  C5'   T A  43      -5.813  20.563  43.382  1.00  0.00     0.216 C 
ATOM    989  C4'   T A  43      -6.439  21.869  42.952  1.00  0.00     0.180 C 
ATOM    990  C3'   T A  43      -7.841  22.128  43.489  1.00  0.00     0.198 C 
ATOM    991  O4'   T A  43      -6.588  21.864  41.506  1.00  0.00    -0.353 OA
ATOM    992  O3'   T A  43      -7.796  22.756  44.768  1.00  0.00    -0.279 OA
ATOM    993  C2'   T A  43      -8.450  23.028  42.419  1.00  0.00     0.199 C 
ATOM    994  P     C A  44      -8.913  22.405  45.871  1.00  0.00     0.408 P 
ATOM    995  OP2   C A  44      -9.107  20.932  45.886  1.00  0.00    -0.624 OA
ATOM    996  OP1   C A  44      -8.525  23.105  47.122  1.00  0.00    -0.624 OA
ATOM    997  O5'   C A  44     -10.238  23.093  45.310  1.00  0.00    -0.287 OA
ATOM    998  C5'   C A  44     -11.488  22.404  45.315  1.00  0.00     0.216 C 
ATOM    999  C4'   C A  44     -12.067  22.367  43.920  1.00  0.00     0.180 C 
ATOM   1000  C3'   C A  44     -13.429  21.699  43.802  1.00  0.00     0.198 C 
ATOM   1001  O4'   C A  44     -11.191  21.578  43.066  1.00  0.00    -0.353 OA
ATOM   1002  O3'   C A  44     -14.485  22.621  44.049  1.00  0.00    -0.279 OA
ATOM   1003  C2'   C A  44     -13.422  21.190  42.367  1.00  0.00     0.199 C 
ATOM   1004  P     A A  45     -15.871  22.104  44.682  1.00  0.00     0.408 P 
ATOM   1005  OP1   A A  45     -16.633  23.304  45.111  1.00  0.00    -0.624 OA
ATOM   1006  OP2   A A  45     -15.578  21.030  45.665  1.00  0.00    -0.624 OA
ATOM   1007  O5'   A A  45     -16.638  21.451  43.446  1.00  0.00    -0.287 OA
ATOM   1008  C5'   A A  45     -16.997  22.233  42.309  1.00  0.00     0.216 C 
ATOM   1009  C4'   A A  45     -17.912  21.447  41.399  1.00  0.00     0.180 C 
ATOM   1010  O4'   A A  45     -17.104  20.550  40.584  1.00  0.00    -0.353 OA
ATOM   1011  C3'   A A  45     -18.917  20.540  42.102  1.00  0.00     0.198 C 
ATOM   1012  C1'   A A  45     -17.704  19.268  40.545  1.00  0.00     0.262 C 
ATOM   1013  N9    A A  45     -16.877  18.350  41.328  1.00  0.00    -0.294 N 
ATOM   1014  C2'   A A  45     -19.124  19.429  41.081  1.00  0.00     0.199 C 
ATOM   1015  C4    A A  45     -16.768  16.991  41.149  1.00  0.00     0.167 A 
ATOM   1016  C8    A A  45     -16.052  18.656  42.381  1.00  0.00     0.214 A 
ATOM   1017  C5    A A  45     -15.876  16.555  42.110  1.00  0.00     0.149 A 
ATOM   1018  N3    A A  45     -17.396  16.235  40.232  1.00  0.00    -0.222 NA
ATOM   1019  C6    A A  45     -15.587  15.179  42.136  1.00  0.00     0.155 A 
ATOM   1020  N7    A A  45     -15.429  17.617  42.885  1.00  0.00    -0.236 NA
ATOM   1021  N6    A A  45     -14.744  14.617  43.001  1.00  0.00    -0.382 N 
ATOM   1022  N1    A A  45     -16.201  14.390  41.228  1.00  0.00    -0.222 NA
ATOM   1023  H62   A A  45     -14.565  13.621  42.960  1.00  0.00     0.157 HD
ATOM   1024  H61   A A  45     -14.272  15.186  43.687  1.00  0.00     0.157 HD
ATOM   1025  C2    A A  45     -17.045  14.956  40.355  1.00  0.00     0.237 A 
ATOM   1026  O2'   A A  45     -19.964  19.856  40.025  1.00  0.00    -0.388 OA
ATOM   1027 'HO2   A A  45     -20.447  20.618  40.345  1.00  0.00     0.210 HD
ATOM   1028  O3'   A A  45     -20.125  21.230  42.410  1.00  0.00    -0.279 OA
ATOM   1029  P     C A  46     -21.014  20.763  43.667  1.00  0.00     0.408 P 
ATOM   1030  OP2   C A  46     -20.108  20.508  44.815  1.00  0.00    -0.624 OA
ATOM   1031  O5'   C A  46     -21.631  19.369  43.206  1.00  0.00    -0.287 OA
ATOM   1032  OP1   C A  46     -22.126  21.736  43.812  1.00  0.00    -0.624 OA
ATOM   1033  C5'   C A  46     -22.506  19.287  42.083  1.00  0.00     0.216 C 
ATOM   1034  C4'   C A  46     -22.692  17.846  41.668  1.00  0.00     0.180 C 
ATOM   1035  O4'   C A  46     -21.401  17.290  41.298  1.00  0.00    -0.353 OA
ATOM   1036  C3'   C A  46     -23.210  16.915  42.757  1.00  0.00     0.198 C 
ATOM   1037  C1'   C A  46     -21.309  15.950  41.748  1.00  0.00     0.264 C 
ATOM   1038  C2'   C A  46     -22.676  15.559  42.311  1.00  0.00     0.199 C 
ATOM   1039  N1    C A  46     -20.213  15.865  42.729  1.00  0.00    -0.278 N 
ATOM   1040  O2'   C A  46     -23.459  15.021  41.262  1.00  0.00    -0.388 OA
ATOM   1041 'HO2   C A  46     -24.283  15.510  41.255  1.00  0.00     0.210 HD
ATOM   1042  C2    C A  46     -19.558  14.644  42.905  1.00  0.00     0.352 A 
ATOM   1043  C6    C A  46     -19.835  16.961  43.455  1.00  0.00     0.102 A 
ATOM   1044  N3    C A  46     -18.547  14.558  43.798  1.00  0.00    -0.177 NA
ATOM   1045  O2    C A  46     -19.920  13.664  42.237  1.00  0.00    -0.244 OA
ATOM   1046  C4    C A  46     -18.182  15.634  44.497  1.00  0.00     0.128 A 
ATOM   1047  N4    C A  46     -17.178  15.503  45.363  1.00  0.00    -0.384 N 
ATOM   1048  C5    C A  46     -18.831  16.893  44.338  1.00  0.00     0.067 A 
ATOM   1049  H42   C A  46     -16.730  14.605  45.473  1.00  0.00     0.157 HD
ATOM   1050  H41   C A  46     -16.872  16.293  45.910  1.00  0.00     0.157 HD
ATOM   1051  O3'   C A  46     -24.632  16.942  42.833  1.00  0.00    -0.279 OA
ATOM   1052  P     G A  47     -25.370  16.485  44.187  1.00  0.00     0.408 P 
ATOM   1053  OP1   G A  47     -26.828  16.464  43.908  1.00  0.00    -0.624 OA
ATOM   1054  O5'   G A  47     -24.882  14.983  44.404  1.00  0.00    -0.287 OA
ATOM   1055  OP2   G A  47     -24.849  17.311  45.306  1.00  0.00    -0.624 OA
ATOM   1056  C5'   G A  47     -25.322  13.934  43.543  1.00  0.00     0.216 C 
ATOM   1057  C4'   G A  47     -24.898  12.593  44.098  1.00  0.00     0.180 C 
ATOM   1058  C3'   G A  47     -25.054  12.424  45.603  1.00  0.00     0.198 C 
ATOM   1059  O4'   G A  47     -23.478  12.418  43.865  1.00  0.00    -0.353 OA
ATOM   1060  C2'   G A  47     -24.020  11.350  45.929  1.00  0.00     0.199 C 
ATOM   1061  O3'   G A  47     -26.376  12.021  45.953  1.00  0.00    -0.279 OA
ATOM   1062  C1'   G A  47     -22.910  11.675  44.928  1.00  0.00     0.262 C 
ATOM   1063  O2'   G A  47     -24.522  10.058  45.643  1.00  0.00    -0.388 OA
ATOM   1064  N9    G A  47     -21.814  12.453  45.498  1.00  0.00    -0.293 N 
ATOM   1065  C8    G A  47     -21.698  13.821  45.542  1.00  0.00     0.214 A 
ATOM   1066  C4    G A  47     -20.686  11.950  46.100  1.00  0.00     0.187 A 
ATOM   1067  N7    G A  47     -20.595  14.226  46.110  1.00  0.00    -0.234 NA
ATOM   1068  C5    G A  47     -19.946  13.052  46.470  1.00  0.00     0.173 A 
ATOM   1069  C6    G A  47     -18.700  12.849  47.125  1.00  0.00     0.292 A 
ATOM   1070  O6    G A  47     -17.895  13.694  47.534  1.00  0.00    -0.265 OA
ATOM   1071  N1    G A  47     -18.426  11.496  47.292  1.00  0.00    -0.153 N 
ATOM   1072  C2    G A  47     -19.241  10.470  46.882  1.00  0.00     0.703 A 
ATOM   1073  H1    G A  47     -17.558  11.256  47.748  1.00  0.00     0.187 HD
ATOM   1074  N2    G A  47     -18.808   9.233  47.129  1.00  0.00    -0.233 N 
ATOM   1075  N3    G A  47     -20.399  10.644  46.274  1.00  0.00    -0.044 NA
ATOM   1076  H21   G A  47     -19.374   8.447  46.847  1.00  0.00     0.174 HD
ATOM   1077  H22   G A  47     -17.923   9.080  47.594  1.00  0.00     0.174 HD
ATOM   1078 'HO2   G A  47     -25.474  10.112  45.734  1.00  0.00     0.210 HD
ATOM   1079  C1'   C A  44     -11.967  20.745  42.222  1.00  0.00     0.264 C 
ATOM   1080  O2'   C A  44     -13.668  22.243  41.453  1.00  0.00    -0.388 OA
ATOM   1081  N1    C A  44     -11.730  19.342  42.606  1.00  0.00    -0.278 N 
ATOM   1082  C6    C A  44     -11.029  19.035  43.738  1.00  0.00     0.102 A 
ATOM   1083  C2    C A  44     -12.234  18.324  41.791  1.00  0.00     0.352 A 
ATOM   1084  C5    C A  44     -10.809  17.763  44.092  1.00  0.00     0.067 A 
ATOM   1085  C4    C A  44     -11.332  16.745  43.242  1.00  0.00     0.128 A 
ATOM   1086  N4    C A  44     -11.146  15.460  43.542  1.00  0.00    -0.384 N 
ATOM   1087  N3    C A  44     -12.017  17.034  42.135  1.00  0.00    -0.177 NA
ATOM   1088  H41   C A  44     -10.633  15.204  44.373  1.00  0.00     0.157 HD
ATOM   1089  H42   C A  44     -11.521  14.742  42.938  1.00  0.00     0.157 HD
ATOM   1090  O2    C A  44     -12.870  18.626  40.772  1.00  0.00    -0.244 OA
ATOM   1091 'HO2   C A  44     -14.140  22.922  41.937  1.00  0.00     0.210 HD
ATOM   1092  C1'   T A  43      -7.829  22.447  41.148  1.00  0.00     0.264 C 
ATOM   1093  O2'   T A  43      -8.009  24.366  42.568  1.00  0.00    -0.388 OA
ATOM   1094  N1    T A  43      -8.653  21.416  40.502  1.00  0.00    -0.280 N 
ATOM   1095  C2    T A  43      -9.413  21.787  39.409  1.00  0.00     0.331 A 
ATOM   1096  C6    T A  43      -8.667  20.122  40.968  1.00  0.00     0.104 A 
ATOM   1097  N3    T A  43     -10.157  20.780  38.850  1.00  0.00    -0.275 N 
ATOM   1098  O2    T A  43      -9.429  22.922  38.966  1.00  0.00    -0.246 OA
ATOM   1099  H3    T A  43     -10.724  21.027  38.055  1.00  0.00     0.173 HD
ATOM   1100  C4    T A  43     -10.216  19.469  39.262  1.00  0.00     0.250 A 
ATOM   1101  O4    T A  43     -10.929  18.675  38.651  1.00  0.00    -0.268 OA
ATOM   1102  C5    T A  43      -9.405  19.165  40.398  1.00  0.00     0.092 A 
ATOM   1103 'HO2   T A  43      -7.519  24.404  43.390  1.00  0.00     0.210 HD
ATOM   1104  C1'   A A  42      -4.778  18.961  38.926  1.00  0.00     0.262 C 
ATOM   1105  O2'   A A  42      -3.984  19.891  40.981  1.00  0.00    -0.388 OA
ATOM   1106  N9    A A  42      -5.964  18.865  38.077  1.00  0.00    -0.294 N 
ATOM   1107  C8    A A  42      -6.605  17.726  37.660  1.00  0.00     0.214 A 
ATOM   1108  C4    A A  42      -6.668  19.912  37.532  1.00  0.00     0.167 A 
ATOM   1109  N7    A A  42      -7.648  17.954  36.902  1.00  0.00    -0.236 NA
ATOM   1110  C5    A A  42      -7.700  19.337  36.813  1.00  0.00     0.149 A 
ATOM   1111  C6    A A  42      -8.577  20.210  36.148  1.00  0.00     0.155 A 
ATOM   1112  N6    A A  42      -9.612  19.800  35.414  1.00  0.00    -0.382 N 
ATOM   1113  N1    A A  42      -8.352  21.536  36.262  1.00  0.00    -0.222 NA
ATOM   1114  H61   A A  42      -9.791  18.808  35.320  1.00  0.00     0.157 HD
ATOM   1115  H62   A A  42     -10.210  20.472  34.958  1.00  0.00     0.157 HD
ATOM   1116  C2    A A  42      -7.309  21.947  36.997  1.00  0.00     0.237 A 
ATOM   1117  N3    A A  42      -6.414  21.224  37.667  1.00  0.00    -0.222 NA
ATOM   1118 'HO2   A A  42      -3.697  19.352  41.718  1.00  0.00     0.210 HD
ATOM   1119  C4    A A  41      -4.566  19.067  34.666  1.00  0.00     0.167 A 
ATOM   1120  C8    A A  41      -5.839  17.617  33.626  1.00  0.00     0.214 A 
ATOM   1121  N3    A A  41      -3.587  19.658  35.372  1.00  0.00    -0.222 NA
ATOM   1122  C5    A A  41      -5.671  19.681  34.104  1.00  0.00     0.149 A 
ATOM   1123  C2    A A  41      -3.809  20.966  35.476  1.00  0.00     0.237 A 
ATOM   1124  N1    A A  41      -4.821  21.696  34.990  1.00  0.00    -0.222 NA
ATOM   1125  C6    A A  41      -5.787  21.070  34.285  1.00  0.00     0.155 A 
ATOM   1126  N6    A A  41      -6.794  21.798  33.800  1.00  0.00    -0.382 N 
ATOM   1127  H61   A A  41      -7.527  21.351  33.269  1.00  0.00     0.157 HD
ATOM   1128  H62   A A  41      -6.818  22.794  33.966  1.00  0.00     0.157 HD
ATOM   1129  N7    A A  41      -6.468  18.753  33.449  1.00  0.00    -0.236 NA
BRANCH 1061 1130
ATOM   1130  P     T A  48     -27.173  12.794  47.118  1.00  0.00     0.408 P 
ATOM   1131  OP1   T A  48     -28.056  11.793  47.766  1.00  0.00    -0.624 OA
ATOM   1132  OP2   T A  48     -27.763  14.045  46.572  1.00  0.00    -0.624 OA
BRANCH 1130 1133
ATOM   1133  O5'   T A  48     -26.039  13.188  48.168  1.00  0.00    -0.287 OA
BRANCH 1133 1134
ATOM   1134  C5'   T A  48     -25.989  12.589  49.464  1.00  0.00     0.216 C 
BRANCH 1134 1135
ATOM   1135  C4'   T A  48     -25.915  13.659  50.527  1.00  0.00     0.180 C 
ATOM   1136  O4'   T A  48     -26.556  14.861  50.018  1.00  0.00    -0.353 OA
ATOM   1137  C1'   T A  48     -27.301  15.481  51.050  1.00  0.00     0.264 C 
ATOM   1138  N1    T A  48     -28.724  15.447  50.678  1.00  0.00    -0.280 N 
ATOM   1139  C2'   T A  48     -26.985  14.741  52.351  1.00  0.00     0.199 C 
ATOM   1140  C2    T A  48     -29.555  16.409  51.222  1.00  0.00     0.331 A 
ATOM   1141  C6    T A  48     -29.216  14.491  49.816  1.00  0.00     0.104 A 
ATOM   1142  O2    T A  48     -29.160  17.274  51.982  1.00  0.00    -0.246 OA
ATOM   1143  N3    T A  48     -30.870  16.320  50.844  1.00  0.00    -0.275 N 
ATOM   1144  H3    T A  48     -31.495  17.013  51.226  1.00  0.00     0.173 HD
ATOM   1145  C4    T A  48     -31.429  15.391  49.996  1.00  0.00     0.250 A 
ATOM   1146  O4    T A  48     -32.637  15.432  49.769  1.00  0.00    -0.268 OA
ATOM   1147  C5    T A  48     -30.505  14.436  49.471  1.00  0.00     0.092 A 
ATOM   1148  O2'   T A  48     -25.856  15.346  52.954  1.00  0.00    -0.388 OA
ATOM   1149  C3'   T A  48     -26.650  13.351  51.826  1.00  0.00     0.198 C 
ATOM   1150 'HO2   T A  48     -25.537  14.731  53.615  1.00  0.00     0.210 HD
BRANCH 1149 1151
ATOM   1151  O3'   T A  48     -25.833  12.613  52.734  1.00  0.00    -0.279 OA
BRANCH 1151 1152
ATOM   1152  P     C A  49     -24.305  13.059  52.983  1.00  0.00     0.408 P 
ATOM   1153  OP1   C A  49     -24.254  13.767  54.287  1.00  0.00    -0.624 OA
ATOM   1154  OP2   C A  49     -23.797  13.735  51.762  1.00  0.00    -0.624 OA
BRANCH 1152 1155
ATOM   1155  O5'   C A  49     -23.519  11.681  53.144  1.00  0.00    -0.287 OA
BRANCH 1155 1156
ATOM   1156  C5'   C A  49     -22.775  11.388  54.327  1.00  0.00     0.216 C 
BRANCH 1156 1157
ATOM   1157  C4'   C A  49     -22.327   9.945  54.314  1.00  0.00     0.180 C 
ATOM   1158  C3'   C A  49     -21.672   9.467  53.025  1.00  0.00     0.198 C 
ATOM   1159  C2'   C A  49     -21.941   7.967  53.066  1.00  0.00     0.199 C 
ATOM   1160  O2'   C A  49     -21.069   7.311  53.966  1.00  0.00    -0.388 OA
ATOM   1161  C1'   C A  49     -23.355   7.944  53.645  1.00  0.00     0.264 C 
ATOM   1162 'HO2   C A  49     -20.192   7.666  53.810  1.00  0.00     0.210 HD
ATOM   1163  N1    C A  49     -24.408   7.969  52.616  1.00  0.00    -0.278 N 
ATOM   1164  O4'   C A  49     -23.495   9.092  54.463  1.00  0.00    -0.353 OA
ATOM   1165  C2    C A  49     -24.998   6.765  52.235  1.00  0.00     0.352 A 
ATOM   1166  C6    C A  49     -24.797   9.142  52.031  1.00  0.00     0.102 A 
ATOM   1167  O2    C A  49     -24.636   5.722  52.793  1.00  0.00    -0.244 OA
ATOM   1168  N3    C A  49     -25.948   6.767  51.273  1.00  0.00    -0.177 NA
ATOM   1169  C4    C A  49     -26.314   7.915  50.702  1.00  0.00     0.128 A 
ATOM   1170  C5    C A  49     -25.736   9.162  51.076  1.00  0.00     0.067 A 
ATOM   1171  N4    C A  49     -27.248   7.866  49.751  1.00  0.00    -0.384 N 
ATOM   1172  H42   C A  49     -27.650   6.977  49.486  1.00  0.00     0.157 HD
ATOM   1173  H41   C A  49     -27.554   8.711  49.290  1.00  0.00     0.157 HD
BRANCH 1158 1174
ATOM   1174  O3'   C A  49     -20.278   9.769  52.985  1.00  0.00    -0.279 OA
ATOM   1175  P     G A  50     -19.740  10.954  52.037  1.00  0.00     0.408 P 
ATOM   1176  O5'   G A  50     -18.865  10.206  50.933  1.00  0.00    -0.287 OA
ATOM   1177  OP1   G A  50     -18.830  11.793  52.858  1.00  0.00    -0.624 OA
ATOM   1178  OP2   G A  50     -20.900  11.584  51.355  1.00  0.00    -0.624 OA
ATOM   1179  C5'   G A  50     -17.582   9.664  51.247  1.00  0.00     0.216 C 
ATOM   1180  C4'   G A  50     -17.511   8.212  50.827  1.00  0.00     0.180 C 
ATOM   1181  C3'   G A  50     -17.212   7.964  49.354  1.00  0.00     0.198 C 
ATOM   1182  O4'   G A  50     -18.810   7.594  51.036  1.00  0.00    -0.353 OA
ATOM   1183  C2'   G A  50     -17.808   6.579  49.131  1.00  0.00     0.199 C 
ATOM   1184  O3'   G A  50     -15.812   7.999  49.085  1.00  0.00    -0.279 OA
ATOM   1185  C1'   G A  50     -19.053   6.643  50.015  1.00  0.00     0.262 C 
ATOM   1186  O2'   G A  50     -16.949   5.568  49.625  1.00  0.00    -0.388 OA
ATOM   1187  N9    G A  50     -20.256   7.038  49.287  1.00  0.00    -0.293 N 
ATOM   1188  C4    G A  50     -20.789   6.401  48.193  1.00  0.00     0.187 A 
ATOM   1189  C8    G A  50     -21.073   8.110  49.547  1.00  0.00     0.214 A 
ATOM   1190  N3    G A  50     -20.295   5.292  47.604  1.00  0.00    -0.044 NA
ATOM   1191  C5    G A  50     -21.907   7.132  47.852  1.00  0.00     0.173 A 
ATOM   1192  C2    G A  50     -21.025   4.918  46.570  1.00  0.00     0.703 A 
ATOM   1193  N2    G A  50     -20.670   3.843  45.862  1.00  0.00    -0.233 N 
ATOM   1194  N1    G A  50     -22.154   5.571  46.152  1.00  0.00    -0.153 N 
ATOM   1195  H21   G A  50     -19.843   3.327  46.125  1.00  0.00     0.174 HD
ATOM   1196  H22   G A  50     -21.217   3.557  45.063  1.00  0.00     0.174 HD
ATOM   1197  H1    G A  50     -22.637   5.192  45.354  1.00  0.00     0.187 HD
ATOM   1198  C6    G A  50     -22.684   6.712  46.741  1.00  0.00     0.292 A 
ATOM   1199  O6    G A  50     -23.712   7.224  46.279  1.00  0.00    -0.265 OA
ATOM   1200  N7    G A  50     -22.075   8.208  48.716  1.00  0.00    -0.234 NA
ATOM   1201 'HO2   G A  50     -16.054   5.897  49.526  1.00  0.00     0.210 HD
ATOM   1202  P     G A  51     -15.283   8.533  47.661  1.00  0.00     0.408 P 
ATOM   1203  O5'   G A  51     -15.964   7.559  46.598  1.00  0.00    -0.287 OA
ATOM   1204  OP2   G A  51     -15.812   9.905  47.448  1.00  0.00    -0.624 OA
ATOM   1205  OP1   G A  51     -13.816   8.300  47.626  1.00  0.00    -0.624 OA
ATOM   1206  C5'   G A  51     -15.750   6.148  46.652  1.00  0.00     0.216 C 
ATOM   1207  C4'   G A  51     -16.117   5.508  45.331  1.00  0.00     0.180 C 
ATOM   1208  O4'   G A  51     -17.503   5.073  45.365  1.00  0.00    -0.353 OA
ATOM   1209  C3'   G A  51     -16.077   6.403  44.104  1.00  0.00     0.198 C 
ATOM   1210  C1'   G A  51     -18.038   5.112  44.049  1.00  0.00     0.262 C 
ATOM   1211  N9    G A  51     -19.217   5.973  44.046  1.00  0.00    -0.293 N 
ATOM   1212  C2'   G A  51     -16.929   5.612  43.123  1.00  0.00     0.199 C 
ATOM   1213  C4    G A  51     -20.235   5.954  43.122  1.00  0.00     0.187 A 
ATOM   1214  C8    G A  51     -19.531   6.961  44.946  1.00  0.00     0.214 A 
ATOM   1215  N3    G A  51     -20.323   5.129  42.058  1.00  0.00    -0.044 NA
ATOM   1216  C5    G A  51     -21.110   6.941  43.522  1.00  0.00     0.173 A 
ATOM   1217  C2    G A  51     -21.416   5.351  41.352  1.00  0.00     0.703 A 
ATOM   1218  N2    G A  51     -21.658   4.623  40.260  1.00  0.00    -0.233 N 
ATOM   1219  N1    G A  51     -22.351   6.305  41.662  1.00  0.00    -0.153 N 
ATOM   1220  H22   G A  51     -22.487   4.785  39.707  1.00  0.00     0.174 HD
ATOM   1221  H21   G A  51     -20.998   3.907  39.990  1.00  0.00     0.174 HD
ATOM   1222  C6    G A  51     -22.282   7.166  42.752  1.00  0.00     0.292 A 
ATOM   1223  H1    G A  51     -23.151   6.392  41.054  1.00  0.00     0.187 HD
ATOM   1224  O6    G A  51     -23.182   7.991  42.940  1.00  0.00    -0.265 OA
ATOM   1225  N7    G A  51     -20.653   7.567  44.674  1.00  0.00    -0.234 NA
ATOM   1226  O2'   G A  51     -16.224   4.495  42.615  1.00  0.00    -0.388 OA
ATOM   1227 'HO2   G A  51     -15.306   4.758  42.546  1.00  0.00     0.210 HD
ATOM   1228  O3'   G A  51     -14.754   6.621  43.626  1.00  0.00    -0.279 OA
ATOM   1229  P     G A  52     -14.449   7.881  42.673  1.00  0.00     0.408 P 
ATOM   1230  O5'   G A  52     -15.337   7.610  41.377  1.00  0.00    -0.287 OA
ATOM   1231  OP2   G A  52     -14.958   9.106  43.340  1.00  0.00    -0.624 OA
ATOM   1232  OP1   G A  52     -13.018   7.801  42.280  1.00  0.00    -0.624 OA
ATOM   1233  C5'   G A  52     -14.952   6.626  40.418  1.00  0.00     0.216 C 
ATOM   1234  C4'   G A  52     -16.045   6.431  39.392  1.00  0.00     0.180 C 
ATOM   1235  O4'   G A  52     -17.322   6.240  40.055  1.00  0.00    -0.353 OA
ATOM   1236  C3'   G A  52     -16.320   7.608  38.470  1.00  0.00     0.198 C 
ATOM   1237  C1'   G A  52     -18.364   6.675  39.196  1.00  0.00     0.262 C 
ATOM   1238  C2'   G A  52     -17.713   7.278  37.948  1.00  0.00     0.199 C 
ATOM   1239  N9    G A  52     -19.205   7.622  39.920  1.00  0.00    -0.293 N 
ATOM   1240  O2'   G A  52     -17.661   6.283  36.943  1.00  0.00    -0.388 OA
ATOM   1241 'HO2   G A  52     -16.746   6.216  36.668  1.00  0.00     0.210 HD
ATOM   1242  C8    G A  52     -18.932   8.228  41.123  1.00  0.00     0.214 A 
ATOM   1243  C4    G A  52     -20.434   8.091  39.523  1.00  0.00     0.187 A 
ATOM   1244  N7    G A  52     -19.876   9.037  41.518  1.00  0.00    -0.234 NA
ATOM   1245  C5    G A  52     -20.834   8.962  40.514  1.00  0.00     0.173 A 
ATOM   1246  C6    G A  52     -22.086   9.619  40.384  1.00  0.00     0.292 A 
ATOM   1247  O6    G A  52     -22.620  10.425  41.154  1.00  0.00    -0.265 OA
ATOM   1248  N1    G A  52     -22.735   9.253  39.209  1.00  0.00    -0.153 N 
ATOM   1249  C2    G A  52     -22.246   8.370  38.282  1.00  0.00     0.703 A 
ATOM   1250  H1    G A  52     -23.634   9.672  39.030  1.00  0.00     0.187 HD
ATOM   1251  N2    G A  52     -23.018   8.149  37.215  1.00  0.00    -0.233 N 
ATOM   1252  N3    G A  52     -21.085   7.750  38.390  1.00  0.00    -0.044 NA
ATOM   1253  H21   G A  52     -22.704   7.508  36.501  1.00  0.00     0.174 HD
ATOM   1254  H22   G A  52     -23.907   8.622  37.119  1.00  0.00     0.174 HD
ATOM   1255  O3'   G A  52     -15.356   7.712  37.427  1.00  0.00    -0.279 OA
ATOM   1256  P     G A  53     -15.143   9.117  36.672  1.00  0.00     0.408 P 
ATOM   1257  OP2   G A  53     -15.026  10.189  37.692  1.00  0.00    -0.624 OA
ATOM   1258  OP1   G A  53     -14.052   8.924  35.682  1.00  0.00    -0.624 OA
ATOM   1259  O5'   G A  53     -16.503   9.337  35.870  1.00  0.00    -0.287 OA
ATOM   1260  C5'   G A  53     -16.911   8.420  34.857  1.00  0.00     0.216 C 
ATOM   1261  C4'   G A  53     -18.258   8.820  34.298  1.00  0.00     0.180 C 
ATOM   1262  C3'   G A  53     -18.384  10.257  33.821  1.00  0.00     0.198 C 
ATOM   1263  O4'   G A  53     -19.266   8.730  35.339  1.00  0.00    -0.353 OA
ATOM   1264  O3'   G A  53     -17.814  10.442  32.528  1.00  0.00    -0.279 OA
ATOM   1265  C2'   G A  53     -19.895  10.460  33.829  1.00  0.00     0.199 C 
ATOM   1266  P     T A  54     -17.381  11.915  32.049  1.00  0.00     0.408 P 
ATOM   1267  OP2   T A  54     -16.595  12.553  33.135  1.00  0.00    -0.624 OA
ATOM   1268  O5'   T A  54     -18.762  12.697  31.909  1.00  0.00    -0.287 OA
ATOM   1269  OP1   T A  54     -16.786  11.782  30.695  1.00  0.00    -0.624 OA
ATOM   1270  C5'   T A  54     -19.736  12.298  30.947  1.00  0.00     0.216 C 
ATOM   1271  C4'   T A  54     -20.957  13.183  31.039  1.00  0.00     0.180 C 
ATOM   1272  O4'   T A  54     -21.576  13.017  32.341  1.00  0.00    -0.353 OA
ATOM   1273  C3'   T A  54     -20.698  14.680  30.955  1.00  0.00     0.198 C 
ATOM   1274  C1'   T A  54     -22.185  14.235  32.735  1.00  0.00     0.264 C 
ATOM   1275  N1    T A  54     -21.631  14.636  34.036  1.00  0.00    -0.280 N 
ATOM   1276  C2'   T A  54     -21.939  15.258  31.624  1.00  0.00     0.199 C 
ATOM   1277  C6    T A  54     -20.413  14.165  34.474  1.00  0.00     0.104 A 
ATOM   1278  C2    T A  54     -22.375  15.508  34.808  1.00  0.00     0.331 A 
ATOM   1279  C5    T A  54     -19.892  14.518  35.654  1.00  0.00     0.092 A 
ATOM   1280  C4    T A  54     -20.602  15.419  36.507  1.00  0.00     0.250 A 
ATOM   1281  N3    T A  54     -21.808  15.850  36.007  1.00  0.00    -0.275 N 
ATOM   1282  O4    T A  54     -20.222  15.831  37.602  1.00  0.00    -0.268 OA
ATOM   1283  H3    T A  54     -22.337  16.490  36.582  1.00  0.00     0.173 HD
ATOM   1284  O2    T A  54     -23.455  15.947  34.457  1.00  0.00    -0.246 OA
ATOM   1285  O2'   T A  54     -23.047  15.245  30.744  1.00  0.00    -0.388 OA
ATOM   1286 'HO2   T A  54     -22.700  15.090  29.865  1.00  0.00     0.210 HD
ATOM   1287  O2'   G A  53     -20.495   9.856  32.699  1.00  0.00    -0.388 OA
ATOM   1288  C1'   G A  53     -20.296   9.669  35.076  1.00  0.00     0.262 C 
ATOM   1289 'HO2   G A  53     -19.785   9.638  32.093  1.00  0.00     0.210 HD
ATOM   1290  N9    G A  53     -20.477  10.505  36.259  1.00  0.00    -0.293 N 
ATOM   1291  C8    G A  53     -19.627  10.626  37.332  1.00  0.00     0.214 A 
ATOM   1292  C4    G A  53     -21.541  11.336  36.515  1.00  0.00     0.187 A 
ATOM   1293  N7    G A  53     -20.059  11.457  38.240  1.00  0.00    -0.234 NA
ATOM   1294  C5    G A  53     -21.269  11.915  37.736  1.00  0.00     0.173 A 
ATOM   1295  C6    G A  53     -22.204  12.838  38.277  1.00  0.00     0.292 A 
ATOM   1296  O6    G A  53     -22.146  13.459  39.345  1.00  0.00    -0.265 OA
ATOM   1297  N1    G A  53     -23.295  13.014  37.435  1.00  0.00    -0.153 N 
ATOM   1298  C2    G A  53     -23.469  12.384  36.230  1.00  0.00     0.703 A 
ATOM   1299  H1    G A  53     -24.013  13.655  37.736  1.00  0.00     0.187 HD
ATOM   1300  N3    G A  53     -22.612  11.522  35.715  1.00  0.00    -0.044 NA
ATOM   1301  N2    G A  53     -24.585  12.687  35.564  1.00  0.00    -0.233 N 
ATOM   1302  H22   G A  53     -25.249  13.346  35.947  1.00  0.00     0.174 HD
ATOM   1303  H21   G A  53     -24.763  12.251  34.670  1.00  0.00     0.174 HD
BRANCH 1273 1304
ATOM   1304  O3'   T A  54     -20.553  15.117  29.605  1.00  0.00    -0.279 OA
BRANCH 1304 1305
ATOM   1305  P     C A  55     -19.092  15.482  29.038  1.00  0.00     0.408 P 
ATOM   1306  OP2   C A  55     -18.609  14.343  28.215  1.00  0.00    -0.624 OA
ATOM   1307  OP1   C A  55     -19.177  16.837  28.436  1.00  0.00    -0.624 OA
BRANCH 1305 1308
ATOM   1308  O5'   C A  55     -18.181  15.573  30.342  1.00  0.00    -0.287 OA
BRANCH 1308 1309
ATOM   1309  C5'   C A  55     -16.762  15.438  30.258  1.00  0.00     0.216 C 
BRANCH 1309 1310
ATOM   1310  C4'   C A  55     -16.099  16.783  30.434  1.00  0.00     0.180 C 
ATOM   1311  O4'   C A  55     -16.975  17.647  31.205  1.00  0.00    -0.353 OA
ATOM   1312  C1'   C A  55     -16.201  18.483  32.048  1.00  0.00     0.264 C 
ATOM   1313  N1    C A  55     -16.591  18.223  33.444  1.00  0.00    -0.278 N 
ATOM   1314  C2'   C A  55     -14.726  18.200  31.760  1.00  0.00     0.199 C 
ATOM   1315  C2    C A  55     -16.500  19.262  34.374  1.00  0.00     0.352 A 
ATOM   1316  C6    C A  55     -17.034  16.989  33.831  1.00  0.00     0.102 A 
ATOM   1317  N3    C A  55     -16.856  19.034  35.657  1.00  0.00    -0.177 NA
ATOM   1318  O2    C A  55     -16.094  20.370  33.998  1.00  0.00    -0.244 OA
ATOM   1319  C4    C A  55     -17.290  17.828  36.024  1.00  0.00     0.128 A 
ATOM   1320  N4    C A  55     -17.632  17.652  37.299  1.00  0.00    -0.384 N 
ATOM   1321  C5    C A  55     -17.394  16.749  35.098  1.00  0.00     0.067 A 
ATOM   1322  H42   C A  55     -17.558  18.426  37.946  1.00  0.00     0.157 HD
ATOM   1323  H41   C A  55     -17.966  16.755  37.619  1.00  0.00     0.157 HD
ATOM   1324  C3'   C A  55     -14.794  16.776  31.218  1.00  0.00     0.198 C 
BRANCH 1314 1325
ATOM   1325  O2'   C A  55     -14.278  19.104  30.768  1.00  0.00    -0.388 OA
ATOM   1326 'HO2   C A  55     -14.832  19.882  30.832  1.00  0.00     0.210 HD
ENDBRANCH 1314 1325
BRANCH 1324 1327
ATOM   1327  O3'   C A  55     -13.683  16.459  30.384  1.00  0.00    -0.279 OA
BRANCH 1327 1328
ATOM   1328  P     A A  56     -12.438  15.639  30.987  1.00  0.00     0.408 P 
ATOM   1329  O5'   A A  56     -12.535  14.212  30.282  1.00  0.00    -0.287 OA
ATOM   1330  C5'   A A  56     -13.659  13.360  30.499  1.00  0.00     0.216 C 
ATOM   1331  C4'   A A  56     -13.386  11.983  29.938  1.00  0.00     0.180 C 
ATOM   1332  O4'   A A  56     -13.683  11.987  28.517  1.00  0.00    -0.353 OA
ATOM   1333  C3'   A A  56     -11.939  11.516  30.021  1.00  0.00     0.182 C 
ATOM   1334  C1'   A A  56     -12.760  11.160  27.833  1.00  0.00     0.262 C 
ATOM   1335  N9    A A  56     -12.039  11.981  26.861  1.00  0.00    -0.294 N 
ATOM   1336  C2'   A A  56     -11.852  10.510  28.879  1.00  0.00     0.198 C 
ATOM   1337  C4    A A  56     -11.751  11.640  25.562  1.00  0.00     0.167 A 
ATOM   1338  C8    A A  56     -11.514  13.236  27.045  1.00  0.00     0.214 A 
ATOM   1339  C5    A A  56     -11.059  12.714  25.035  1.00  0.00     0.149 A 
ATOM   1340  N3    A A  56     -12.069  10.498  24.928  1.00  0.00    -0.222 NA
ATOM   1341  C6    A A  56     -10.641  12.609  23.697  1.00  0.00     0.155 A 
ATOM   1342  N7    A A  56     -10.916  13.718  25.983  1.00  0.00    -0.236 NA
ATOM   1343  N1    A A  56     -10.945  11.475  23.032  1.00  0.00    -0.222 NA
ATOM   1344  N6    A A  56      -9.963  13.561  23.056  1.00  0.00    -0.382 N 
ATOM   1345  C2    A A  56     -11.623  10.516  23.674  1.00  0.00     0.237 A 
ATOM   1346  H61   A A  56      -9.722  14.417  23.532  1.00  0.00     0.157 HD
ATOM   1347  H62   A A  56      -9.698  13.423  22.092  1.00  0.00     0.157 HD
ATOM   1348  O2'   A A  56     -12.408   9.263  29.252  1.00  0.00    -0.388 OA
ATOM   1349 'HO2   A A  56     -12.312   9.187  30.202  1.00  0.00     0.210 HD
ATOM   1350  O3'   A A  56     -11.630  10.932  31.292  1.00  0.00    -0.390 OA
ATOM   1351 'HO3   A A  56     -11.845  11.584  31.963  1.00  0.00     0.210 HD
ATOM   1352  OP2   A A  56     -11.181  16.292  30.542  1.00  0.00    -0.624 OA
ATOM   1353  OP1   A A  56     -12.694  15.451  32.438  1.00  0.00    -0.624 OA
ENDBRANCH 1327 1328
ENDBRANCH 1324 1327
ENDBRANCH 1309 1310
ENDBRANCH 1308 1309
ENDBRANCH 1305 1308
ENDBRANCH 1304 1305
ENDBRANCH 1273 1304
ENDBRANCH 1158 1174
ENDBRANCH 1156 1157
ENDBRANCH 1155 1156
ENDBRANCH 1152 1155
ENDBRANCH 1151 1152
ENDBRANCH 1149 1151
ENDBRANCH 1134 1135
ENDBRANCH 1133 1134
ENDBRANCH 1130 1133
ENDBRANCH 1061 1130
ENDBRANCH 964 965
ENDBRANCH 963 964
ENDBRANCH 960 963
ENDBRANCH 959 960
ENDBRANCH 939 959
ENDBRANCH 937 938
ENDBRANCH 936 937
ENDBRANCH 933 936
ENDBRANCH 932 933
ENDBRANCH 844 932
BRANCH 927 1354
ATOM   1354  N4    C A  33       0.805  -7.835  44.771  1.00  0.00    -0.384 N 
ATOM   1355  H42   C A  33       0.343  -8.410  45.462  1.00  0.00     0.157 HD
ATOM   1356  H41   C A  33       1.788  -7.623  44.865  1.00  0.00     0.157 HD
ENDBRANCH 927 1354
ENDBRANCH 742 743
ENDBRANCH 741 742
ENDBRANCH 738 741
ENDBRANCH 737 738
ENDBRANCH 703 737
ENDBRANCH 665 666
ENDBRANCH 664 665
ENDBRANCH 661 664
ENDBRANCH 660 661
ENDBRANCH 640 660
ENDBRANCH 638 639
ENDBRANCH 637 638
ENDBRANCH 634 637
ENDBRANCH 633 634
ENDBRANCH 588 633
BRANCH 561 1357
ATOM   1357  O2'   A A  24       1.645   2.920  24.184  1.00  0.00    -0.388 OA
ATOM   1358 'HO2   A A  24       1.721   2.141  23.632  1.00  0.00     0.210 HD
ENDBRANCH 561 1357
BRANCH 631 1359
ATOM   1359  N9    A A  24      -0.349   0.925  26.504  1.00  0.00    -0.294 N 
ATOM   1360  C8    A A  24      -0.149   0.126  27.603  1.00  0.00     0.214 A 
ATOM   1361  N7    A A  24      -1.154   0.125  28.446  1.00  0.00    -0.236 NA
ATOM   1362  C5    A A  24      -2.079   0.980  27.862  1.00  0.00     0.149 A 
ATOM   1363  C4    A A  24      -1.596   1.479  26.666  1.00  0.00     0.167 A 
ATOM   1364  C6    A A  24      -3.359   1.405  28.261  1.00  0.00     0.155 A 
ATOM   1365  N3    A A  24      -2.223   2.331  25.838  1.00  0.00    -0.222 NA
ATOM   1366  C2    A A  24      -3.419   2.660  26.321  1.00  0.00     0.237 A 
ATOM   1367  N1    A A  24      -4.014   2.262  27.451  1.00  0.00    -0.222 NA
ATOM   1368  N6    A A  24      -3.954   1.010  29.385  1.00  0.00    -0.382 N 
ATOM   1369  H62   A A  24      -4.878   1.355  29.606  1.00  0.00     0.157 HD
ATOM   1370  H61   A A  24      -3.485   0.369  30.009  1.00  0.00     0.157 HD
ENDBRANCH 631 1359
ENDBRANCH 557 558
ENDBRANCH 556 557
ENDBRANCH 553 556
ENDBRANCH 552 553
ENDBRANCH 534 552
BRANCH 535 1371
ATOM   1371  O2'   G A  23       6.823  -2.109  31.262  1.00  0.00    -0.388 OA
ATOM   1372 'HO2   G A  23       6.388  -2.420  30.468  1.00  0.00     0.210 HD
ENDBRANCH 535 1371
ENDBRANCH 532 533
ENDBRANCH 531 532
ENDBRANCH 499 531
ENDBRANCH 484 485
ENDBRANCH 483 484
ENDBRANCH 480 483
ENDBRANCH 479 480
ENDBRANCH 465 479
BRANCH 467 1373
ATOM   1373  O2'   C A  20       1.331  14.510  36.641  1.00  0.00    -0.388 OA
ATOM   1374 'HO2   C A  20       0.487  14.284  36.249  1.00  0.00     0.210 HD
ENDBRANCH 467 1373
ENDBRANCH 462 463
ENDBRANCH 459 462
ENDBRANCH 458 459
ENDBRANCH 446 458
ENDBRANCH 441 442
ENDBRANCH 425 441
ENDBRANCH 299 300
ENDBRANCH 298 299
ENDBRANCH 295 298
ENDBRANCH 294 295
ENDBRANCH 291 294
ENDBRANCH 272 273
ENDBRANCH 271 272
ENDBRANCH 268 271
ENDBRANCH 267 268
ENDBRANCH 254 267
ENDBRANCH 249 250
ENDBRANCH 248 249
ENDBRANCH 245 248
ENDBRANCH 244 245
ENDBRANCH 227 244
ENDBRANCH 222 223
ENDBRANCH 206 222
ENDBRANCH 195 196
ENDBRANCH 194 195
ENDBRANCH 191 194
ENDBRANCH 190 191
ENDBRANCH 179 190
ENDBRANCH 173 174
ENDBRANCH 172 173
ENDBRANCH 169 172
ENDBRANCH 168 169
ENDBRANCH 167 168
TORSDOF 435
ENDMDL
MODEL 7
REMARK VINA RESULT:      -1.0      7.066     17.650
REMARK WARNING: 32 MAX_TORS EXCEEDED!!!
REMARK  104 active torsions:
REMARK  status: ('A' for Active; 'I' for Inactive)
REMARK       I    between atoms: O5'_2  and  C5'_3 
REMARK       I    between atoms: C5'_3  and  C4'_4 
REMARK       I    between atoms: C1'_6  and  N9_7 
REMARK       I    between atoms: C2_10  and  N2_11 
REMARK       I    between atoms: C2'_21  and  O2'_22 
REMARK       I    between atoms: C3'_24  and  O3'_25 
REMARK       I    between atoms: O3'_25  and  P_26 
REMARK       I    between atoms: P_26  and  O5'_29 
REMARK       I    between atoms: O5'_29  and  C5'_30 
REMARK       I    between atoms: C5'_30  and  C4'_31 
REMARK       I    between atoms: C1'_33  and  N9_34 
REMARK       I    between atoms: C6_39  and  N6_40 
REMARK       I    between atoms: C2'_46  and  O2'_47 
REMARK       I    between atoms: C3'_49  and  O3'_50 
REMARK       I    between atoms: O3'_50  and  P_51 
REMARK       I    between atoms: P_51  and  O5'_54 
REMARK       I    between atoms: O5'_54  and  C5'_55 
REMARK       I    between atoms: C5'_55  and  C4'_56 
REMARK       I    between atoms: C1'_58  and  N1_59 
REMARK       I    between atoms: C4_64  and  N4_65 
REMARK       I    between atoms: C2'_69  and  O2'_70 
REMARK       I    between atoms: C3'_72  and  O3'_73 
REMARK       I    between atoms: O3'_73  and  P_74 
REMARK       I    between atoms: P_74  and  O5'_77 
REMARK       I    between atoms: O5'_77  and  C5'_78 
REMARK       I    between atoms: C5'_78  and  C4'_79 
REMARK       I    between atoms: C1'_81  and  N1_82 
REMARK       I    between atoms: C4_87  and  N4_88 
REMARK       I    between atoms: C2'_92  and  O2'_93 
REMARK       I    between atoms: C3'_95  and  O3'_96 
REMARK       I    between atoms: O3'_96  and  P_97 
REMARK       I    between atoms: P_97  and  O5'_100 
REMARK       I    between atoms: O5'_100  and  C5'_101 
REMARK       I    between atoms: C5'_101  and  C4'_102 
REMARK       I    between atoms: C1'_104  and  N1_105 
REMARK       I    between atoms: C2'_114  and  O2'_115 
REMARK       I    between atoms: C3'_117  and  O3'_118 
REMARK       I    between atoms: O3'_118  and  P_119 
REMARK       I    between atoms: P_119  and  O5'_122 
REMARK       I    between atoms: O5'_122  and  C5'_123 
REMARK       I    between atoms: C5'_123  and  C4'_124 
REMARK       I    between atoms: C1'_126  and  N1_127 
REMARK       I    between atoms: C4_132  and  N4_133 
REMARK       I    between atoms: C2'_137  and  O2'_138 
REMARK       I    between atoms: C3'_140  and  O3'_141 
REMARK       I    between atoms: O3'_141  and  P_142 
REMARK       I    between atoms: P_142  and  O5'_145 
REMARK       I    between atoms: O5'_145  and  C5'_146 
REMARK       I    between atoms: C5'_146  and  C4'_147 
REMARK       I    between atoms: C1'_149  and  N9_150 
REMARK       I    between atoms: C2_153  and  N2_154 
REMARK       I    between atoms: C2'_164  and  O2'_165 
REMARK    1  A    between atoms: C3'_167  and  O3'_168 
REMARK    2  A    between atoms: O3'_168  and  P_169 
REMARK    3  A    between atoms: P_169  and  O5'_172 
REMARK    4  A    between atoms: O5'_172  and  C5'_173 
REMARK    5  A    between atoms: C5'_173  and  C4'_174 
REMARK       I    between atoms: C1'_176  and  N1_177 
REMARK    6  A    between atoms: C2'_186  and  O2'_187 
REMARK    7  A    between atoms: C3'_189  and  O3'_190 
REMARK    8  A    between atoms: O3'_190  and  P_191 
REMARK    9  A    between atoms: P_191  and  O5'_194 
REMARK   10  A    between atoms: O5'_194  and  C5'_195 
REMARK   11  A    between atoms: C5'_195  and  C4'_196 
REMARK       I    between atoms: C1'_198  and  N9_199 
REMARK       I    between atoms: C2_202  and  N2_203 
REMARK   12  A    between atoms: C2'_213  and  O2'_214 
REMARK       I    between atoms: C3'_216  and  O3'_217 
REMARK       I    between atoms: O3'_217  and  P_218 
REMARK       I    between atoms: P_218  and  O5'_221 
REMARK   13  A    between atoms: O5'_221  and  C5'_222 
REMARK   14  A    between atoms: C5'_222  and  C4'_223 
REMARK   15  A    between atoms: C1'_225  and  N9_226 
REMARK       I    between atoms: C2_229  and  N2_230 
REMARK   16  A    between atoms: C2'_240  and  O2'_241 
REMARK   17  A    between atoms: C3'_243  and  O3'_244 
REMARK   18  A    between atoms: O3'_244  and  P_245 
REMARK   19  A    between atoms: P_245  and  O5'_248 
REMARK   20  A    between atoms: O5'_248  and  C5'_249 
REMARK   21  A    between atoms: C5'_249  and  C4'_250 
REMARK   22  A    between atoms: C1'_252  and  N1_253 
REMARK       I    between atoms: C4_258  and  N4_259 
REMARK   23  A    between atoms: C2'_263  and  O2'_264 
REMARK   24  A    between atoms: C3'_266  and  O3'_267 
REMARK   25  A    between atoms: O3'_267  and  P_268 
REMARK   26  A    between atoms: P_268  and  O5'_271 
REMARK   27  A    between atoms: O5'_271  and  C5'_272 
REMARK   28  A    between atoms: C5'_272  and  C4'_273 
REMARK       I    between atoms: C1'_275  and  N9_276 
REMARK       I    between atoms: C2_279  and  N2_280 
REMARK   29  A    between atoms: C2'_290  and  O2'_291 
REMARK   30  A    between atoms: C3'_293  and  O3'_294 
REMARK   31  A    between atoms: O3'_294  and  P_295 
REMARK   32  A    between atoms: P_295  and  O5'_298 
REMARK   33  A    between atoms: O5'_298  and  C5'_299 
REMARK   34  A    between atoms: C5'_299  and  C4'_300 
REMARK       I    between atoms: C1'_302  and  N1_303 
REMARK       I    between atoms: C2'_312  and  O2'_313 
REMARK       I    between atoms: C3'_315  and  O3'_316 
REMARK       I    between atoms: O3'_316  and  P_317 
REMARK       I    between atoms: P_317  and  O5'_320 
REMARK       I    between atoms: O5'_320  and  C5'_321 
REMARK       I    between atoms: C5'_321  and  C4'_322 
REMARK       I    between atoms: C1'_324  and  N1_325 
REMARK       I    between atoms: C4_330  and  N4_331 
REMARK       I    between atoms: C2'_335  and  O2'_336 
REMARK       I    between atoms: C3'_338  and  O3'_339 
REMARK       I    between atoms: O3'_339  and  P_340 
REMARK       I    between atoms: P_340  and  O5'_343 
REMARK       I    between atoms: O5'_343  and  C5'_344 
REMARK       I    between atoms: C5'_344  and  C4'_345 
REMARK       I    between atoms: C1'_347  and  N1_348 
REMARK       I    between atoms: C2'_357  and  O2'_358 
REMARK       I    between atoms: C3'_360  and  O3'_361 
REMARK       I    between atoms: O3'_361  and  P_362 
REMARK       I    between atoms: P_362  and  O5'_365 
REMARK       I    between atoms: O5'_365  and  C5'_366 
REMARK       I    between atoms: C5'_366  and  C4'_367 
REMARK       I    between atoms: C1'_369  and  N9_370 
REMARK       I    between atoms: C2_373  and  N2_374 
REMARK       I    between atoms: C2'_384  and  O2'_385 
REMARK       I    between atoms: C3'_387  and  O3'_388 
REMARK       I    between atoms: O3'_388  and  P_389 
REMARK       I    between atoms: P_389  and  O5'_392 
REMARK       I    between atoms: O5'_392  and  C5'_393 
REMARK       I    between atoms: C5'_393  and  C4'_394 
REMARK       I    between atoms: C1'_396  and  N9_397 
REMARK       I    between atoms: C6_402  and  N6_403 
REMARK       I    between atoms: C2'_409  and  O2'_410 
REMARK       I    between atoms: C3'_412  and  O3'_413 
REMARK       I    between atoms: O3'_413  and  P_414 
REMARK       I    between atoms: P_414  and  O5'_417 
REMARK       I    between atoms: O5'_417  and  C5'_418 
REMARK       I    between atoms: C5'_418  and  C4'_419 
REMARK       I    between atoms: C1'_421  and  N1_422 
REMARK       I    between atoms: C4_427  and  N4_428 
REMARK       I    between atoms: C2'_432  and  O2'_433 
REMARK       I    between atoms: C3'_435  and  O3'_436 
REMARK       I    between atoms: O3'_436  and  P_437 
REMARK       I    between atoms: P_437  and  O5'_440 
REMARK   35  A    between atoms: O5'_440  and  C5'_441 
REMARK   36  A    between atoms: C5'_441  and  C4'_442 
REMARK   37  A    between atoms: C1'_444  and  N1_445 
REMARK   38  A    between atoms: C2'_454  and  O2'_455 
REMARK   39  A    between atoms: C3'_457  and  O3'_458 
REMARK   40  A    between atoms: O3'_458  and  P_459 
REMARK   41  A    between atoms: P_459  and  O5'_462 
REMARK   42  A    between atoms: O5'_462  and  C5'_463 
REMARK       I    between atoms: C5'_463  and  C4'_464 
REMARK       I    between atoms: C1'_466  and  N1_467 
REMARK       I    between atoms: C4_472  and  N4_473 
REMARK   43  A    between atoms: C2'_477  and  O2'_478 
REMARK   44  A    between atoms: C3'_480  and  O3'_481 
REMARK   45  A    between atoms: O3'_481  and  P_482 
REMARK   46  A    between atoms: P_482  and  O5'_485 
REMARK   47  A    between atoms: O5'_485  and  C5'_486 
REMARK   48  A    between atoms: C5'_486  and  C4'_487 
REMARK       I    between atoms: C1'_489  and  N1_490 
REMARK       I    between atoms: C4_495  and  N4_496 
REMARK       I    between atoms: C2'_500  and  O2'_501 
REMARK       I    between atoms: C3'_503  and  O3'_504 
REMARK       I    between atoms: O3'_504  and  P_505 
REMARK       I    between atoms: P_505  and  O5'_508 
REMARK       I    between atoms: O5'_508  and  C5'_509 
REMARK       I    between atoms: C5'_509  and  C4'_510 
REMARK       I    between atoms: C1'_512  and  N9_513 
REMARK       I    between atoms: C6_518  and  N6_519 
REMARK       I    between atoms: C2'_525  and  O2'_526 
REMARK       I    between atoms: C3'_528  and  O3'_529 
REMARK       I    between atoms: O3'_529  and  P_530 
REMARK   49  A    between atoms: P_530  and  O5'_533 
REMARK   50  A    between atoms: O5'_533  and  C5'_534 
REMARK   51  A    between atoms: C5'_534  and  C4'_535 
REMARK       I    between atoms: C1'_537  and  N9_538 
REMARK       I    between atoms: C2_541  and  N2_542 
REMARK   52  A    between atoms: C2'_552  and  O2'_553 
REMARK   53  A    between atoms: C3'_555  and  O3'_556 
REMARK   54  A    between atoms: O3'_556  and  P_557 
REMARK   55  A    between atoms: P_557  and  O5'_560 
REMARK   56  A    between atoms: O5'_560  and  C5'_561 
REMARK   57  A    between atoms: C5'_561  and  C4'_562 
REMARK   58  A    between atoms: C1'_564  and  N9_565 
REMARK       I    between atoms: C6_570  and  N6_571 
REMARK   59  A    between atoms: C2'_577  and  O2'_578 
REMARK       I    between atoms: C3'_580  and  O3'_581 
REMARK       I    between atoms: O3'_581  and  P_582 
REMARK       I    between atoms: P_582  and  O5'_585 
REMARK       I    between atoms: O5'_585  and  C5'_586 
REMARK       I    between atoms: C5'_586  and  C4'_587 
REMARK       I    between atoms: C1'_589  and  N1_590 
REMARK       I    between atoms: C2'_599  and  O2'_600 
REMARK       I    between atoms: C3'_602  and  O3'_603 
REMARK       I    between atoms: O3'_603  and  P_604 
REMARK       I    between atoms: P_604  and  O5'_607 
REMARK       I    between atoms: O5'_607  and  C5'_608 
REMARK       I    between atoms: C5'_608  and  C4'_609 
REMARK       I    between atoms: C1'_611  and  N1_612 
REMARK       I    between atoms: C4_617  and  N4_618 
REMARK       I    between atoms: C2'_622  and  O2'_623 
REMARK       I    between atoms: C3'_625  and  O3'_626 
REMARK       I    between atoms: O3'_626  and  P_627 
REMARK       I    between atoms: P_627  and  O5'_630 
REMARK       I    between atoms: O5'_630  and  C5'_631 
REMARK       I    between atoms: C5'_631  and  C4'_632 
REMARK       I    between atoms: C1'_634  and  N9_635 
REMARK       I    between atoms: C6_640  and  N6_641 
REMARK       I    between atoms: C2'_647  and  O2'_648 
REMARK   60  A    between atoms: C3'_650  and  O3'_651 
REMARK   61  A    between atoms: O3'_651  and  P_652 
REMARK   62  A    between atoms: P_652  and  O5'_655 
REMARK   63  A    between atoms: O5'_655  and  C5'_656 
REMARK   64  A    between atoms: C5'_656  and  C4'_657 
REMARK       I    between atoms: C1'_659  and  N9_660 
REMARK       I    between atoms: C2_663  and  N2_664 
REMARK       I    between atoms: C2'_674  and  O2'_675 
REMARK   65  A    between atoms: C3'_677  and  O3'_678 
REMARK   66  A    between atoms: O3'_678  and  P_679 
REMARK   67  A    between atoms: P_679  and  O5'_682 
REMARK   68  A    between atoms: O5'_682  and  C5'_683 
REMARK   69  A    between atoms: C5'_683  and  C4'_684 
REMARK       I    between atoms: C1'_686  and  N9_687 
REMARK       I    between atoms: C6_692  and  N6_693 
REMARK       I    between atoms: C2'_699  and  O2'_700 
REMARK       I    between atoms: C3'_702  and  O3'_703 
REMARK       I    between atoms: O3'_703  and  P_704 
REMARK       I    between atoms: P_704  and  O5'_707 
REMARK       I    between atoms: O5'_707  and  C5'_708 
REMARK       I    between atoms: C5'_708  and  C4'_709 
REMARK       I    between atoms: C1'_711  and  N9_712 
REMARK       I    between atoms: C6_717  and  N6_718 
REMARK       I    between atoms: C2'_724  and  O2'_725 
REMARK       I    between atoms: C3'_727  and  O3'_728 
REMARK       I    between atoms: O3'_728  and  P_729 
REMARK       I    between atoms: P_729  and  O5'_732 
REMARK       I    between atoms: O5'_732  and  C5'_733 
REMARK       I    between atoms: C5'_733  and  C4'_734 
REMARK       I    between atoms: C1'_736  and  N9_737 
REMARK       I    between atoms: C2_740  and  N2_741 
REMARK       I    between atoms: C2'_751  and  O2'_752 
REMARK   70  A    between atoms: C3'_754  and  O3'_755 
REMARK   71  A    between atoms: O3'_755  and  P_756 
REMARK   72  A    between atoms: P_756  and  O5'_759 
REMARK   73  A    between atoms: O5'_759  and  C5'_760 
REMARK   74  A    between atoms: C5'_760  and  C4'_761 
REMARK       I    between atoms: C1'_763  and  N9_764 
REMARK       I    between atoms: C2_767  and  N2_768 
REMARK       I    between atoms: C2'_778  and  O2'_779 
REMARK       I    between atoms: C3'_781  and  O3'_782 
REMARK       I    between atoms: O3'_782  and  P_783 
REMARK       I    between atoms: P_783  and  O5'_786 
REMARK       I    between atoms: O5'_786  and  C5'_787 
REMARK       I    between atoms: C5'_787  and  C4'_788 
REMARK       I    between atoms: C1'_790  and  N1_791 
REMARK   75  A    between atoms: C4_796  and  N4_797 
REMARK       I    between atoms: C2'_801  and  O2'_802 
REMARK       I    between atoms: C3'_804  and  O3'_805 
REMARK       I    between atoms: O3'_805  and  P_806 
REMARK       I    between atoms: P_806  and  O5'_809 
REMARK       I    between atoms: O5'_809  and  C5'_810 
REMARK       I    between atoms: C5'_810  and  C4'_811 
REMARK       I    between atoms: C1'_813  and  N1_814 
REMARK       I    between atoms: C2'_823  and  O2'_824 
REMARK       I    between atoms: C3'_826  and  O3'_827 
REMARK       I    between atoms: O3'_827  and  P_828 
REMARK       I    between atoms: P_828  and  O5'_831 
REMARK       I    between atoms: O5'_831  and  C5'_832 
REMARK       I    between atoms: C5'_832  and  C4'_833 
REMARK       I    between atoms: C1'_835  and  N9_836 
REMARK       I    between atoms: C2_839  and  N2_840 
REMARK       I    between atoms: C2'_850  and  O2'_851 
REMARK       I    between atoms: C3'_853  and  O3'_854 
REMARK       I    between atoms: O3'_854  and  P_855 
REMARK       I    between atoms: P_855  and  O5'_858 
REMARK       I    between atoms: O5'_858  and  C5'_859 
REMARK       I    between atoms: C5'_859  and  C4'_860 
REMARK       I    between atoms: C1'_862  and  N1_863 
REMARK       I    between atoms: C4_868  and  N4_869 
REMARK       I    between atoms: C2'_873  and  O2'_874 
REMARK       I    between atoms: C3'_876  and  O3'_877 
REMARK       I    between atoms: O3'_877  and  P_878 
REMARK       I    between atoms: P_878  and  O5'_881 
REMARK       I    between atoms: O5'_881  and  C5'_882 
REMARK       I    between atoms: C5'_882  and  C4'_883 
REMARK       I    between atoms: C1'_885  and  N9_886 
REMARK       I    between atoms: C2_889  and  N2_890 
REMARK       I    between atoms: C2'_900  and  O2'_901 
REMARK       I    between atoms: C3'_903  and  O3'_904 
REMARK       I    between atoms: O3'_904  and  P_905 
REMARK       I    between atoms: P_905  and  O5'_908 
REMARK       I    between atoms: O5'_908  and  C5'_909 
REMARK       I    between atoms: C5'_909  and  C4'_910 
REMARK       I    between atoms: C1'_912  and  N1_913 
REMARK       I    between atoms: C2'_922  and  O2'_923 
REMARK       I    between atoms: C3'_925  and  O3'_926 
REMARK       I    between atoms: O3'_926  and  P_927 
REMARK       I    between atoms: P_927  and  O5'_930 
REMARK       I    between atoms: O5'_930  and  C5'_931 
REMARK       I    between atoms: C5'_931  and  C4'_932 
REMARK       I    between atoms: C1'_934  and  N9_935 
REMARK       I    between atoms: C2_938  and  N2_939 
REMARK   76  A    between atoms: C2'_949  and  O2'_950 
REMARK   77  A    between atoms: C3'_952  and  O3'_953 
REMARK   78  A    between atoms: O3'_953  and  P_954 
REMARK   79  A    between atoms: P_954  and  O5'_957 
REMARK   80  A    between atoms: O5'_957  and  C5'_958 
REMARK   81  A    between atoms: C5'_958  and  C4'_959 
REMARK       I    between atoms: C1'_961  and  N9_962 
REMARK       I    between atoms: C2_965  and  N2_966 
REMARK       I    between atoms: C2'_976  and  O2'_977 
REMARK   82  A    between atoms: C3'_979  and  O3'_980 
REMARK   83  A    between atoms: O3'_980  and  P_981 
REMARK   84  A    between atoms: P_981  and  O5'_984 
REMARK   85  A    between atoms: O5'_984  and  C5'_985 
REMARK   86  A    between atoms: C5'_985  and  C4'_986 
REMARK       I    between atoms: C1'_988  and  N9_989 
REMARK       I    between atoms: C6_994  and  N6_995 
REMARK       I    between atoms: C2'_1001  and  O2'_1002 
REMARK       I    between atoms: C3'_1004  and  O3'_1005 
REMARK       I    between atoms: O3'_1005  and  P_1006 
REMARK       I    between atoms: P_1006  and  O5'_1009 
REMARK       I    between atoms: O5'_1009  and  C5'_1010 
REMARK       I    between atoms: C5'_1010  and  C4'_1011 
REMARK       I    between atoms: C1'_1013  and  N9_1014 
REMARK       I    between atoms: C6_1019  and  N6_1020 
REMARK       I    between atoms: C2'_1026  and  O2'_1027 
REMARK       I    between atoms: C3'_1029  and  O3'_1030 
REMARK       I    between atoms: O3'_1030  and  P_1031 
REMARK       I    between atoms: P_1031  and  O5'_1034 
REMARK       I    between atoms: O5'_1034  and  C5'_1035 
REMARK       I    between atoms: C5'_1035  and  C4'_1036 
REMARK       I    between atoms: C1'_1038  and  N1_1039 
REMARK       I    between atoms: C2'_1048  and  O2'_1049 
REMARK       I    between atoms: C3'_1051  and  O3'_1052 
REMARK       I    between atoms: O3'_1052  and  P_1053 
REMARK       I    between atoms: P_1053  and  O5'_1056 
REMARK       I    between atoms: O5'_1056  and  C5'_1057 
REMARK       I    between atoms: C5'_1057  and  C4'_1058 
REMARK       I    between atoms: C1'_1060  and  N1_1061 
REMARK       I    between atoms: C4_1066  and  N4_1067 
REMARK       I    between atoms: C2'_1071  and  O2'_1072 
REMARK       I    between atoms: C3'_1074  and  O3'_1075 
REMARK       I    between atoms: O3'_1075  and  P_1076 
REMARK       I    between atoms: P_1076  and  O5'_1079 
REMARK       I    between atoms: O5'_1079  and  C5'_1080 
REMARK       I    between atoms: C5'_1080  and  C4'_1081 
REMARK       I    between atoms: C1'_1083  and  N9_1084 
REMARK       I    between atoms: C6_1089  and  N6_1090 
REMARK       I    between atoms: C2'_1096  and  O2'_1097 
REMARK       I    between atoms: C3'_1099  and  O3'_1100 
REMARK       I    between atoms: O3'_1100  and  P_1101 
REMARK       I    between atoms: P_1101  and  O5'_1104 
REMARK       I    between atoms: O5'_1104  and  C5'_1105 
REMARK       I    between atoms: C5'_1105  and  C4'_1106 
REMARK       I    between atoms: C1'_1108  and  N1_1109 
REMARK       I    between atoms: C4_1114  and  N4_1115 
REMARK       I    between atoms: C2'_1119  and  O2'_1120 
REMARK       I    between atoms: C3'_1122  and  O3'_1123 
REMARK       I    between atoms: O3'_1123  and  P_1124 
REMARK       I    between atoms: P_1124  and  O5'_1127 
REMARK       I    between atoms: O5'_1127  and  C5'_1128 
REMARK       I    between atoms: C5'_1128  and  C4'_1129 
REMARK       I    between atoms: C1'_1131  and  N9_1132 
REMARK       I    between atoms: C2_1135  and  N2_1136 
REMARK       I    between atoms: C2'_1146  and  O2'_1147 
REMARK       I    between atoms: C3'_1149  and  O3'_1150 
REMARK   87  A    between atoms: O3'_1150  and  P_1151 
REMARK   88  A    between atoms: P_1151  and  O5'_1154 
REMARK   89  A    between atoms: O5'_1154  and  C5'_1155 
REMARK   90  A    between atoms: C5'_1155  and  C4'_1156 
REMARK       I    between atoms: C1'_1158  and  N1_1159 
REMARK       I    between atoms: C2'_1168  and  O2'_1169 
REMARK   91  A    between atoms: C3'_1171  and  O3'_1172 
REMARK   92  A    between atoms: O3'_1172  and  P_1173 
REMARK   93  A    between atoms: P_1173  and  O5'_1176 
REMARK   94  A    between atoms: O5'_1176  and  C5'_1177 
REMARK   95  A    between atoms: C5'_1177  and  C4'_1178 
REMARK       I    between atoms: C1'_1180  and  N1_1181 
REMARK       I    between atoms: C4_1186  and  N4_1187 
REMARK       I    between atoms: C2'_1191  and  O2'_1192 
REMARK   96  A    between atoms: C3'_1194  and  O3'_1195 
REMARK       I    between atoms: O3'_1195  and  P_1196 
REMARK       I    between atoms: P_1196  and  O5'_1199 
REMARK       I    between atoms: O5'_1199  and  C5'_1200 
REMARK       I    between atoms: C5'_1200  and  C4'_1201 
REMARK       I    between atoms: C1'_1203  and  N9_1204 
REMARK       I    between atoms: C2_1207  and  N2_1208 
REMARK       I    between atoms: C2'_1218  and  O2'_1219 
REMARK       I    between atoms: C3'_1221  and  O3'_1222 
REMARK       I    between atoms: O3'_1222  and  P_1223 
REMARK       I    between atoms: P_1223  and  O5'_1226 
REMARK       I    between atoms: O5'_1226  and  C5'_1227 
REMARK       I    between atoms: C5'_1227  and  C4'_1228 
REMARK       I    between atoms: C1'_1230  and  N9_1231 
REMARK       I    between atoms: C2_1234  and  N2_1235 
REMARK       I    between atoms: C2'_1245  and  O2'_1246 
REMARK       I    between atoms: C3'_1248  and  O3'_1249 
REMARK       I    between atoms: O3'_1249  and  P_1250 
REMARK       I    between atoms: P_1250  and  O5'_1253 
REMARK       I    between atoms: O5'_1253  and  C5'_1254 
REMARK       I    between atoms: C5'_1254  and  C4'_1255 
REMARK       I    between atoms: C1'_1257  and  N9_1258 
REMARK       I    between atoms: C2_1261  and  N2_1262 
REMARK       I    between atoms: C2'_1272  and  O2'_1273 
REMARK       I    between atoms: C3'_1275  and  O3'_1276 
REMARK       I    between atoms: O3'_1276  and  P_1277 
REMARK       I    between atoms: P_1277  and  O5'_1280 
REMARK       I    between atoms: O5'_1280  and  C5'_1281 
REMARK       I    between atoms: C5'_1281  and  C4'_1282 
REMARK       I    between atoms: C1'_1284  and  N9_1285 
REMARK       I    between atoms: C2_1288  and  N2_1289 
REMARK       I    between atoms: C2'_1299  and  O2'_1300 
REMARK       I    between atoms: C3'_1302  and  O3'_1303 
REMARK       I    between atoms: O3'_1303  and  P_1304 
REMARK       I    between atoms: P_1304  and  O5'_1307 
REMARK       I    between atoms: O5'_1307  and  C5'_1308 
REMARK       I    between atoms: C5'_1308  and  C4'_1309 
REMARK       I    between atoms: C1'_1311  and  N1_1312 
REMARK       I    between atoms: C2'_1321  and  O2'_1322 
REMARK   97  A    between atoms: C3'_1324  and  O3'_1325 
REMARK   98  A    between atoms: O3'_1325  and  P_1326 
REMARK   99  A    between atoms: P_1326  and  O5'_1329 
REMARK  100  A    between atoms: O5'_1329  and  C5'_1330 
REMARK  101  A    between atoms: C5'_1330  and  C4'_1331 
REMARK       I    between atoms: C1'_1333  and  N1_1334 
REMARK       I    between atoms: C4_1339  and  N4_1340 
REMARK  102  A    between atoms: C2'_1344  and  O2'_1345 
REMARK  103  A    between atoms: C3'_1347  and  O3'_1348 
REMARK  104  A    between atoms: O3'_1348  and  P_1349 
REMARK       I    between atoms: P_1349  and  O5'_1352 
REMARK       I    between atoms: O5'_1352  and  C5'_1353 
REMARK       I    between atoms: C5'_1353  and  C4'_1354 
REMARK       I    between atoms: C1'_1356  and  N9_1357 
REMARK       I    between atoms: C6_1362  and  N6_1363 
REMARK       I    between atoms: C2'_1369  and  O2'_1370 
REMARK       I    between atoms: C3'_1372  and  O3'_1373 
ROOT
ATOM      1 'HO5   G A   1     -41.285  11.916  14.677  1.00  0.00     0.209 HD
ATOM      2  O5'   G A   1     -40.587  11.290  14.468  1.00  0.00    -0.398 OA
ATOM      3  C5'   G A   1     -39.644  11.979  13.642  1.00  0.00     0.198 C 
ATOM      4  C4'   G A   1     -39.632  13.460  13.950  1.00  0.00     0.180 C 
ATOM      5  O4'   G A   1     -40.796  13.784  14.766  1.00  0.00    -0.353 OA
ATOM      6  C1'   G A   1     -40.411  14.642  15.826  1.00  0.00     0.262 C 
ATOM      7  N9    G A   1     -40.471  13.888  17.076  1.00  0.00    -0.293 N 
ATOM      8  C4    G A   1     -40.359  14.403  18.344  1.00  0.00     0.187 A 
ATOM      9  N3    G A   1     -40.177  15.702  18.659  1.00  0.00    -0.044 NA
ATOM     10  C2    G A   1     -40.106  15.886  19.965  1.00  0.00     0.703 A 
ATOM     11  N2    G A   1     -39.930  17.117  20.452  1.00  0.00    -0.233 N 
ATOM     12  H21   G A   1     -39.851  17.896  19.815  1.00  0.00     0.174 HD
ATOM     13  H22   G A   1     -39.878  17.267  21.450  1.00  0.00     0.174 HD
ATOM     14  N1    G A   1     -40.205  14.878  20.890  1.00  0.00    -0.153 N 
ATOM     15  H1    G A   1     -40.138  15.129  21.864  1.00  0.00     0.187 HD
ATOM     16  C6    G A   1     -40.387  13.534  20.590  1.00  0.00     0.292 A 
ATOM     17  O6    G A   1     -40.458  12.704  21.504  1.00  0.00    -0.265 OA
ATOM     18  C5    G A   1     -40.469  13.318  19.190  1.00  0.00     0.173 A 
ATOM     19  N7    G A   1     -40.649  12.146  18.468  1.00  0.00    -0.234 NA
ATOM     20  C8    G A   1     -40.644  12.534  17.223  1.00  0.00     0.214 A 
ATOM     21  C2'   G A   1     -39.014  15.155  15.492  1.00  0.00     0.199 C 
ATOM     22  O2'   G A   1     -39.132  16.271  14.630  1.00  0.00    -0.388 OA
ATOM     23 'HO2   G A   1     -38.255  16.458  14.295  1.00  0.00     0.210 HD
ATOM     24  C3'   G A   1     -38.439  13.948  14.763  1.00  0.00     0.198 C 
ATOM     25  O3'   G A   1     -37.334  14.287  13.929  1.00  0.00    -0.279 OA
ATOM     26  P     A A   2     -35.835  14.002  14.436  1.00  0.00     0.408 P 
ATOM     27  OP1   A A   2     -34.921  14.329  13.312  1.00  0.00    -0.624 OA
ATOM     28  OP2   A A   2     -35.792  12.648  15.044  1.00  0.00    -0.624 OA
ATOM     29  O5'   A A   2     -35.607  15.075  15.592  1.00  0.00    -0.287 OA
ATOM     30  C5'   A A   2     -35.593  16.472  15.306  1.00  0.00     0.216 C 
ATOM     31  C4'   A A   2     -35.355  17.263  16.571  1.00  0.00     0.180 C 
ATOM     32  O4'   A A   2     -36.521  17.145  17.431  1.00  0.00    -0.353 OA
ATOM     33  C1'   A A   2     -36.108  17.063  18.785  1.00  0.00     0.262 C 
ATOM     34  N9    A A   2     -36.504  15.757  19.311  1.00  0.00    -0.294 N 
ATOM     35  C4    A A   2     -36.613  15.414  20.637  1.00  0.00     0.167 A 
ATOM     36  N3    A A   2     -36.383  16.200  21.703  1.00  0.00    -0.222 NA
ATOM     37  C2    A A   2     -36.588  15.529  22.834  1.00  0.00     0.237 A 
ATOM     38  N1    A A   2     -36.967  14.255  23.006  1.00  0.00    -0.222 NA
ATOM     39  C6    A A   2     -37.189  13.493  21.914  1.00  0.00     0.155 A 
ATOM     40  N6    A A   2     -37.567  12.226  22.087  1.00  0.00    -0.382 N 
ATOM     41  H61   A A   2     -37.738  11.640  21.283  1.00  0.00     0.157 HD
ATOM     42  H62   A A   2     -37.682  11.853  23.019  1.00  0.00     0.157 HD
ATOM     43  C5    A A   2     -37.008  14.089  20.653  1.00  0.00     0.149 A 
ATOM     44  N7    A A   2     -37.147  13.603  19.360  1.00  0.00    -0.236 NA
ATOM     45  C8    A A   2     -36.838  14.628  18.604  1.00  0.00     0.214 A 
ATOM     46  C2'   A A   2     -34.599  17.300  18.815  1.00  0.00     0.199 C 
ATOM     47  O2'   A A   2     -34.359  18.690  18.936  1.00  0.00    -0.388 OA
ATOM     48 'HO2   A A   2     -33.554  18.874  18.452  1.00  0.00     0.210 HD
ATOM     49  C3'   A A   2     -34.198  16.787  17.438  1.00  0.00     0.198 C 
ATOM     50  O3'   A A   2     -32.952  17.320  16.998  1.00  0.00    -0.279 OA
ATOM     51  P     C A   3     -31.599  16.478  17.220  1.00  0.00     0.408 P 
ATOM     52  OP1   C A   3     -30.518  17.183  16.486  1.00  0.00    -0.624 OA
ATOM     53  OP2   C A   3     -31.875  15.049  16.925  1.00  0.00    -0.624 OA
ATOM     54  O5'   C A   3     -31.311  16.616  18.782  1.00  0.00    -0.287 OA
ATOM     55  C5'   C A   3     -30.931  17.868  19.350  1.00  0.00     0.216 C 
ATOM     56  C4'   C A   3     -31.019  17.808  20.858  1.00  0.00     0.180 C 
ATOM     57  O4'   C A   3     -32.354  17.382  21.248  1.00  0.00    -0.353 OA
ATOM     58  C1'   C A   3     -32.277  16.616  22.440  1.00  0.00     0.264 C 
ATOM     59  N1    C A   3     -32.818  15.272  22.173  1.00  0.00    -0.278 N 
ATOM     60  C6    C A   3     -33.003  14.828  20.893  1.00  0.00     0.102 A 
ATOM     61  C2    C A   3     -33.137  14.448  23.256  1.00  0.00     0.352 A 
ATOM     62  O2    C A   3     -32.963  14.873  24.407  1.00  0.00    -0.244 OA
ATOM     63  N3    C A   3     -33.626  13.211  23.025  1.00  0.00    -0.177 NA
ATOM     64  C4    C A   3     -33.802  12.787  21.773  1.00  0.00     0.128 A 
ATOM     65  N4    C A   3     -34.284  11.557  21.596  1.00  0.00    -0.384 N 
ATOM     66  H41   C A   3     -34.431  11.197  20.664  1.00  0.00     0.157 HD
ATOM     67  H42   C A   3     -34.499  10.985  22.400  1.00  0.00     0.157 HD
ATOM     68  C5    C A   3     -33.490  13.605  20.648  1.00  0.00     0.067 A 
ATOM     69  C2'   C A   3     -30.812  16.601  22.877  1.00  0.00     0.199 C 
ATOM     70  O2'   C A   3     -30.587  17.699  23.741  1.00  0.00    -0.388 OA
ATOM     71 'HO2   C A   3     -29.900  18.234  23.341  1.00  0.00     0.210 HD
ATOM     72  C3'   C A   3     -30.111  16.795  21.540  1.00  0.00     0.198 C 
ATOM     73  O3'   C A   3     -28.777  17.275  21.690  1.00  0.00    -0.279 OA
ATOM     74  P     C A   4     -27.567  16.230  21.882  1.00  0.00     0.408 P 
ATOM     75  OP1   C A   4     -26.298  16.962  21.654  1.00  0.00    -0.624 OA
ATOM     76  OP2   C A   4     -27.867  15.016  21.079  1.00  0.00    -0.624 OA
ATOM     77  O5'   C A   4     -27.642  15.827  23.424  1.00  0.00    -0.287 OA
ATOM     78  C5'   C A   4     -27.769  16.821  24.440  1.00  0.00     0.216 C 
ATOM     79  C4'   C A   4     -27.770  16.177  25.808  1.00  0.00     0.180 C 
ATOM     80  O4'   C A   4     -29.108  15.676  26.089  1.00  0.00    -0.353 OA
ATOM     81  C1'   C A   4     -29.026  14.391  26.679  1.00  0.00     0.264 C 
ATOM     82  N1    C A   4     -29.532  13.399  25.714  1.00  0.00    -0.278 N 
ATOM     83  C6    C A   4     -29.443  13.625  24.369  1.00  0.00     0.102 A 
ATOM     84  C2    C A   4     -30.103  12.217  26.194  1.00  0.00     0.352 A 
ATOM     85  O2    C A   4     -30.175  12.036  27.417  1.00  0.00    -0.244 OA
ATOM     86  N3    C A   4     -30.563  11.300  25.312  1.00  0.00    -0.177 NA
ATOM     87  C4    C A   4     -30.472  11.531  24.001  1.00  0.00     0.128 A 
ATOM     88  N4    C A   4     -30.935  10.598  23.172  1.00  0.00    -0.384 N 
ATOM     89  H41   C A   4     -30.884  10.729  22.173  1.00  0.00     0.157 HD
ATOM     90  H42   C A   4     -31.339   9.749  23.547  1.00  0.00     0.157 HD
ATOM     91  C5    C A   4     -29.896  12.728  23.484  1.00  0.00     0.067 A 
ATOM     92  C2'   C A   4     -27.565  14.179  27.069  1.00  0.00     0.199 C 
ATOM     93  O2'   C A   4     -27.343  14.763  28.340  1.00  0.00    -0.388 OA
ATOM     94 'HO2   C A   4     -26.419  15.013  28.371  1.00  0.00     0.210 HD
ATOM     95  C3'   C A   4     -26.864  14.961  25.967  1.00  0.00     0.198 C 
ATOM     96  O3'   C A   4     -25.533  15.327  26.324  1.00  0.00    -0.279 OA
ATOM     97  P     T A   5     -24.287  14.630  25.584  1.00  0.00     0.408 P 
ATOM     98  OP1   T A   5     -23.048  15.305  26.052  1.00  0.00    -0.624 OA
ATOM     99  OP2   T A   5     -24.584  14.570  24.130  1.00  0.00    -0.624 OA
ATOM    100  O5'   T A   5     -24.286  13.137  26.147  1.00  0.00    -0.287 OA
ATOM    101  C5'   T A   5     -23.670  12.818  27.396  1.00  0.00     0.216 C 
ATOM    102  C4'   T A   5     -24.550  11.876  28.189  1.00  0.00     0.180 C 
ATOM    103  O4'   T A   5     -25.935  12.070  27.789  1.00  0.00    -0.353 OA
ATOM    104  C1'   T A   5     -26.598  10.820  27.727  1.00  0.00     0.264 C 
ATOM    105  N1    T A   5     -26.997  10.573  26.333  1.00  0.00    -0.280 N 
ATOM    106  C6    T A   5     -26.656  11.449  25.325  1.00  0.00     0.104 A 
ATOM    107  C2    T A   5     -27.729   9.429  26.061  1.00  0.00     0.331 A 
ATOM    108  O2    T A   5     -28.054   8.629  26.922  1.00  0.00    -0.246 OA
ATOM    109  N3    T A   5     -28.067   9.257  24.744  1.00  0.00    -0.275 N 
ATOM    110  H3    T A   5     -28.612   8.440  24.519  1.00  0.00     0.173 HD
ATOM    111  C4    T A   5     -27.760  10.089  23.694  1.00  0.00     0.250 A 
ATOM    112  O4    T A   5     -28.131   9.789  22.559  1.00  0.00    -0.268 OA
ATOM    113  C5    T A   5     -27.008  11.248  24.052  1.00  0.00     0.092 A 
ATOM    114  C2'   T A   5     -25.644   9.768  28.292  1.00  0.00     0.199 C 
ATOM    115  O2'   T A   5     -25.846   9.681  29.691  1.00  0.00    -0.388 OA
ATOM    116 'HO2   T A   5     -25.004   9.874  30.104  1.00  0.00     0.210 HD
ATOM    117  C3'   T A   5     -24.292  10.391  27.964  1.00  0.00     0.198 C 
ATOM    118  O3'   T A   5     -23.251   9.904  28.808  1.00  0.00    -0.279 OA
ATOM    119  P     C A   6     -21.910   9.295  28.158  1.00  0.00     0.408 P 
ATOM    120  OP1   C A   6     -20.927   9.126  29.259  1.00  0.00    -0.624 OA
ATOM    121  OP2   C A   6     -21.550  10.116  26.974  1.00  0.00    -0.624 OA
ATOM    122  O5'   C A   6     -22.352   7.849  27.648  1.00  0.00    -0.287 OA
ATOM    123  C5'   C A   6     -21.477   6.722  27.750  1.00  0.00     0.216 C 
ATOM    124  C4'   C A   6     -22.240   5.506  28.233  1.00  0.00     0.180 C 
ATOM    125  O4'   C A   6     -23.606   5.905  28.561  1.00  0.00    -0.353 OA
ATOM    126  C1'   C A   6     -24.519   5.007  27.957  1.00  0.00     0.264 C 
ATOM    127  N1    C A   6     -25.088   5.645  26.758  1.00  0.00    -0.278 N 
ATOM    128  C6    C A   6     -24.843   6.959  26.475  1.00  0.00     0.102 A 
ATOM    129  C2    C A   6     -25.873   4.875  25.902  1.00  0.00     0.352 A 
ATOM    130  O2    C A   6     -26.102   3.691  26.196  1.00  0.00    -0.244 OA
ATOM    131  N3    C A   6     -26.370   5.431  24.779  1.00  0.00    -0.177 NA
ATOM    132  C4    C A   6     -26.118   6.709  24.500  1.00  0.00     0.128 A 
ATOM    133  N4    C A   6     -26.622   7.206  23.372  1.00  0.00    -0.384 N 
ATOM    134  H41   C A   6     -26.466   8.167  23.104  1.00  0.00     0.157 HD
ATOM    135  H42   C A   6     -27.168   6.597  22.776  1.00  0.00     0.157 HD
ATOM    136  C5    C A   6     -25.336   7.530  25.366  1.00  0.00     0.067 A 
ATOM    137  C2'   C A   6     -23.718   3.751  27.636  1.00  0.00     0.199 C 
ATOM    138  O2'   C A   6     -23.577   2.979  28.814  1.00  0.00    -0.388 OA
ATOM    139 'HO2   C A   6     -22.647   2.982  29.038  1.00  0.00     0.210 HD
ATOM    140  C3'   C A   6     -22.400   4.381  27.215  1.00  0.00     0.198 C 
ATOM    141  O3'   C A   6     -21.326   3.445  27.245  1.00  0.00    -0.279 OA
ATOM    142  P     G A   7     -20.669   2.948  25.864  1.00  0.00     0.408 P 
ATOM    143  OP1   G A   7     -21.765   2.832  24.866  1.00  0.00    -0.624 OA
ATOM    144  OP2   G A   7     -19.514   3.837  25.584  1.00  0.00    -0.624 OA
ATOM    145  O5'   G A   7     -20.131   1.481  26.184  1.00  0.00    -0.287 OA
ATOM    146  C5'   G A   7     -20.093   0.466  25.175  1.00  0.00     0.216 C 
ATOM    147  C4'   G A   7     -18.660   0.150  24.805  1.00  0.00     0.180 C 
ATOM    148  O4'   G A   7     -18.580  -0.005  23.360  1.00  0.00    -0.353 OA
ATOM    149  C1'   G A   7     -17.789   1.030  22.831  1.00  0.00     0.262 C 
ATOM    150  N9    G A   7     -18.679   2.131  22.475  1.00  0.00    -0.293 N 
ATOM    151  C4    G A   7     -19.791   2.029  21.683  1.00  0.00     0.187 A 
ATOM    152  N3    G A   7     -20.235   0.903  21.090  1.00  0.00    -0.044 NA
ATOM    153  C2    G A   7     -21.332   1.112  20.393  1.00  0.00     0.703 A 
ATOM    154  N2    G A   7     -21.894   0.094  19.745  1.00  0.00    -0.233 N 
ATOM    155  H21   G A   7     -21.467  -0.818  19.799  1.00  0.00     0.174 HD
ATOM    156  H22   G A   7     -22.740   0.231  19.209  1.00  0.00     0.174 HD
ATOM    157  N1    G A   7     -21.954   2.330  20.284  1.00  0.00    -0.153 N 
ATOM    158  H1    G A   7     -22.793   2.380  19.726  1.00  0.00     0.187 HD
ATOM    159  C6    G A   7     -21.517   3.505  20.887  1.00  0.00     0.292 A 
ATOM    160  O6    G A   7     -22.157   4.552  20.727  1.00  0.00    -0.265 OA
ATOM    161  C5    G A   7     -20.330   3.296  21.640  1.00  0.00     0.173 A 
ATOM    162  N7    G A   7     -19.566   4.182  22.387  1.00  0.00    -0.234 NA
ATOM    163  C8    G A   7     -18.597   3.446  22.860  1.00  0.00     0.214 A 
ATOM    164  C2'   G A   7     -16.766   1.331  23.920  1.00  0.00     0.199 C 
ATOM    165  O2'   G A   7     -15.782   0.316  23.896  1.00  0.00    -0.388 OA
ATOM    166 'HO2   G A   7     -16.228  -0.515  24.077  1.00  0.00     0.210 HD
ATOM    167  C3'   G A   7     -17.644   1.235  25.166  1.00  0.00     0.198 C 
ENDROOT
BRANCH 167 168
ATOM    168  O3'   G A   7     -16.919   0.877  26.336  1.00  0.00    -0.279 OA
BRANCH 168 169
ATOM    169  P     T A   8     -16.641   1.986  27.468  1.00  0.00     0.408 P 
ATOM    170  OP2   T A   8     -15.319   1.703  28.085  1.00  0.00    -0.624 OA
ATOM    171  OP1   T A   8     -17.849   2.070  28.327  1.00  0.00    -0.624 OA
BRANCH 169 172
ATOM    172  O5'   T A   8     -16.522   3.349  26.653  1.00  0.00    -0.287 OA
BRANCH 172 173
ATOM    173  C5'   T A   8     -15.252   3.844  26.235  1.00  0.00     0.216 C 
BRANCH 173 174
ATOM    174  C4'   T A   8     -15.418   5.157  25.511  1.00  0.00     0.180 C 
ATOM    175  O4'   T A   8     -16.743   5.686  25.794  1.00  0.00    -0.353 OA
ATOM    176  C1'   T A   8     -16.667   7.088  25.986  1.00  0.00     0.264 C 
ATOM    177  C2'   T A   8     -15.250   7.522  25.608  1.00  0.00     0.199 C 
ATOM    178  N1    T A   8     -17.022   7.387  27.381  1.00  0.00    -0.280 N 
ATOM    179  C3'   T A   8     -14.462   6.261  25.939  1.00  0.00     0.198 C 
ATOM    180  C6    T A   8     -16.532   6.627  28.419  1.00  0.00     0.104 A 
ATOM    181  C2    T A   8     -17.861   8.461  27.619  1.00  0.00     0.331 A 
ATOM    182  C5    T A   8     -16.827   6.886  29.696  1.00  0.00     0.092 A 
ATOM    183  C4    T A   8     -17.683   7.981  30.025  1.00  0.00     0.250 A 
ATOM    184  N3    T A   8     -18.143   8.693  28.941  1.00  0.00    -0.275 N 
ATOM    185  O4    T A   8     -18.004   8.331  31.160  1.00  0.00    -0.268 OA
ATOM    186  H3    T A   8     -18.762   9.462  29.146  1.00  0.00     0.173 HD
ATOM    187  O2    T A   8     -18.319   9.156  26.729  1.00  0.00    -0.246 OA
BRANCH 177 188
ATOM    188  O2'   T A   8     -15.216   7.801  24.220  1.00  0.00    -0.388 OA
ATOM    189 'HO2   T A   8     -16.062   7.526  23.863  1.00  0.00     0.210 HD
ENDBRANCH 177 188
BRANCH 179 190
ATOM    190  O3'   T A   8     -13.226   6.180  25.234  1.00  0.00    -0.279 OA
BRANCH 190 191
ATOM    191  P     G A   9     -11.853   5.937  26.040  1.00  0.00     0.408 P 
ATOM    192  OP1   G A   9     -11.092   4.897  25.303  1.00  0.00    -0.624 OA
ATOM    193  OP2   G A   9     -12.150   5.745  27.483  1.00  0.00    -0.624 OA
BRANCH 191 194
ATOM    194  O5'   G A   9     -11.073   7.317  25.874  1.00  0.00    -0.287 OA
BRANCH 194 195
ATOM    195  C5'   G A   9     -11.780   8.536  25.651  1.00  0.00     0.216 C 
BRANCH 195 196
ATOM    196  C4'   G A   9     -11.441   9.541  26.725  1.00  0.00     0.180 C 
ATOM    197  O4'   G A   9     -11.694   8.954  28.027  1.00  0.00    -0.353 OA
ATOM    198  C1'   G A   9     -10.759   9.460  28.965  1.00  0.00     0.262 C 
ATOM    199  C2'   G A   9      -9.856  10.455  28.233  1.00  0.00     0.199 C 
ATOM    200  N9    G A   9     -10.029   8.336  29.541  1.00  0.00    -0.293 N 
ATOM    201  C3'   G A   9      -9.982   9.967  26.795  1.00  0.00     0.198 C 
ATOM    202  O3'   G A   9      -9.684  10.987  25.846  1.00  0.00    -0.279 OA
ATOM    203  P     G A  10      -8.283  10.957  25.054  1.00  0.00     0.408 P 
ATOM    204  OP2   G A  10      -8.206   9.688  24.287  1.00  0.00    -0.624 OA
ATOM    205  OP1   G A  10      -8.156  12.254  24.341  1.00  0.00    -0.624 OA
ATOM    206  O5'   G A  10      -7.183  10.913  26.208  1.00  0.00    -0.287 OA
ATOM    207  C8    G A   9      -9.395   7.324  28.864  1.00  0.00     0.214 A 
ATOM    208  C4    G A   9      -9.838   8.087  30.878  1.00  0.00     0.187 A 
ATOM    209  N7    G A   9      -8.819   6.458  29.653  1.00  0.00    -0.234 NA
ATOM    210  C5    G A   9      -9.090   6.931  30.932  1.00  0.00     0.173 A 
ATOM    211  C6    G A   9      -8.725   6.414  32.204  1.00  0.00     0.292 A 
ATOM    212  N1    G A   9      -9.213   7.206  33.237  1.00  0.00    -0.153 N 
ATOM    213  O6    G A   9      -8.064   5.405  32.467  1.00  0.00    -0.265 OA
ATOM    214  H1    G A   9      -8.998   6.909  34.176  1.00  0.00     0.187 HD
ATOM    215  C2    G A   9      -9.955   8.348  33.073  1.00  0.00     0.703 A 
ATOM    216  N3    G A   9     -10.300   8.842  31.899  1.00  0.00    -0.044 NA
ATOM    217  N2    G A   9     -10.336   8.971  34.190  1.00  0.00    -0.233 N 
ATOM    218  H22   G A   9     -10.090   8.607  35.099  1.00  0.00     0.174 HD
ATOM    219  H21   G A   9     -10.885   9.815  34.108  1.00  0.00     0.174 HD
BRANCH 199 220
ATOM    220  O2'   G A   9     -10.395  11.755  28.377  1.00  0.00    -0.388 OA
ATOM    221 'HO2   G A   9     -10.887  11.747  29.199  1.00  0.00     0.210 HD
ENDBRANCH 199 220
BRANCH 206 222
ATOM    222  C5'   G A  10      -6.956  12.042  27.052  1.00  0.00     0.216 C 
BRANCH 222 223
ATOM    223  C4'   G A  10      -5.795  12.863  26.534  1.00  0.00     0.180 C 
ATOM    224  O4'   G A  10      -6.081  14.275  26.708  1.00  0.00    -0.353 OA
ATOM    225  C1'   G A  10      -4.873  14.981  26.932  1.00  0.00     0.262 C 
ATOM    226  C2'   G A  10      -3.730  13.962  26.944  1.00  0.00     0.199 C 
ATOM    227  C3'   G A  10      -4.474  12.669  27.265  1.00  0.00     0.198 C 
BRANCH 225 228
ATOM    228  N9    G A  10      -5.003  15.735  28.176  1.00  0.00    -0.293 N 
ATOM    229  C4    G A  10      -4.705  17.064  28.361  1.00  0.00     0.187 A 
ATOM    230  N3    G A  10      -4.234  17.910  27.421  1.00  0.00    -0.044 NA
ATOM    231  C5    G A  10      -4.988  17.323  29.687  1.00  0.00     0.173 A 
ATOM    232  C2    G A  10      -4.043  19.125  27.901  1.00  0.00     0.703 A 
ATOM    233  N1    G A  10      -4.295  19.487  29.200  1.00  0.00    -0.153 N 
ATOM    234  N2    G A  10      -3.577  20.089  27.102  1.00  0.00    -0.233 N 
ATOM    235  C6    G A  10      -4.778  18.636  30.187  1.00  0.00     0.292 A 
ATOM    236  H1    G A  10      -4.113  20.446  29.456  1.00  0.00     0.187 HD
ATOM    237  O6    G A  10      -4.968  19.068  31.332  1.00  0.00    -0.265 OA
ATOM    238  H21   G A  10      -3.375  19.874  26.137  1.00  0.00     0.174 HD
ATOM    239  H22   G A  10      -3.431  21.022  27.459  1.00  0.00     0.174 HD
ATOM    240  N7    G A  10      -5.454  16.179  30.323  1.00  0.00    -0.234 NA
ATOM    241  C8    G A  10      -5.446  15.267  29.390  1.00  0.00     0.214 A 
ENDBRANCH 225 228
BRANCH 226 242
ATOM    242  O2'   G A  10      -3.156  13.911  25.651  1.00  0.00    -0.388 OA
ATOM    243 'HO2   G A  10      -3.612  13.216  25.178  1.00  0.00     0.210 HD
ENDBRANCH 226 242
BRANCH 227 244
ATOM    244  O3'   G A  10      -3.786  11.510  26.798  1.00  0.00    -0.279 OA
BRANCH 244 245
ATOM    245  P     C A  11      -4.177  10.860  25.378  1.00  0.00     0.408 P 
ATOM    246  OP2   C A  11      -5.066   9.695  25.616  1.00  0.00    -0.624 OA
ATOM    247  OP1   C A  11      -4.640  11.968  24.503  1.00  0.00    -0.624 OA
BRANCH 245 248
ATOM    248  O5'   C A  11      -2.791  10.323  24.808  1.00  0.00    -0.287 OA
BRANCH 248 249
ATOM    249  C5'   C A  11      -1.670  11.194  24.665  1.00  0.00     0.216 C 
BRANCH 249 250
ATOM    250  C4'   C A  11      -1.151  11.149  23.248  1.00  0.00     0.180 C 
ATOM    251  O4'   C A  11      -0.129  10.124  23.152  1.00  0.00    -0.353 OA
ATOM    252  C1'   C A  11      -0.167   9.537  21.863  1.00  0.00     0.264 C 
ATOM    253  C2'   C A  11      -1.284  10.216  21.067  1.00  0.00     0.199 C 
ATOM    254  C3'   C A  11      -2.167  10.759  22.185  1.00  0.00     0.198 C 
BRANCH 252 255
ATOM    255  N1    C A  11      -0.354   8.085  22.016  1.00  0.00    -0.278 N 
ATOM    256  C2    C A  11       0.172   7.235  21.042  1.00  0.00     0.352 A 
ATOM    257  O2    C A  11       0.785   7.726  20.085  1.00  0.00    -0.244 OA
ATOM    258  N3    C A  11       0.003   5.901  21.164  1.00  0.00    -0.177 NA
ATOM    259  C4    C A  11      -0.659   5.408  22.210  1.00  0.00     0.128 A 
ATOM    260  N4    C A  11      -0.800   4.085  22.287  1.00  0.00    -0.384 N 
ATOM    261  C5    C A  11      -1.206   6.249  23.224  1.00  0.00     0.067 A 
ATOM    262  H41   C A  11      -1.294   3.668  23.062  1.00  0.00     0.157 HD
ATOM    263  H42   C A  11      -0.407   3.501  21.563  1.00  0.00     0.157 HD
ATOM    264  C6    C A  11      -1.031   7.570  23.086  1.00  0.00     0.102 A 
ENDBRANCH 252 255
BRANCH 253 265
ATOM    265  O2'   C A  11      -0.716  11.265  20.306  1.00  0.00    -0.388 OA
ATOM    266 'HO2   C A  11      -0.691  12.036  20.871  1.00  0.00     0.210 HD
ENDBRANCH 253 265
BRANCH 254 267
ATOM    267  O3'   C A  11      -2.948  11.877  21.768  1.00  0.00    -0.279 OA
BRANCH 267 268
ATOM    268  P     G A  12      -2.261  13.323  21.619  1.00  0.00     0.408 P 
ATOM    269  OP2   G A  12      -1.074  13.380  22.511  1.00  0.00    -0.624 OA
ATOM    270  OP1   G A  12      -2.097  13.579  20.165  1.00  0.00    -0.624 OA
BRANCH 268 271
ATOM    271  O5'   G A  12      -3.366  14.333  22.169  1.00  0.00    -0.287 OA
BRANCH 271 272
ATOM    272  C5'   G A  12      -4.749  14.161  21.857  1.00  0.00     0.216 C 
BRANCH 272 273
ATOM    273  C4'   G A  12      -5.603  14.899  22.862  1.00  0.00     0.180 C 
ATOM    274  O4'   G A  12      -4.735  15.579  23.808  1.00  0.00    -0.353 OA
ATOM    275  C1'   G A  12      -5.311  16.820  24.179  1.00  0.00     0.262 C 
ATOM    276  N9    G A  12      -4.395  17.889  23.795  1.00  0.00    -0.293 N 
ATOM    277  C2'   G A  12      -6.679  16.917  23.500  1.00  0.00     0.199 C 
ATOM    278  C4    G A  12      -4.616  19.239  23.923  1.00  0.00     0.187 A 
ATOM    279  C8    G A  12      -3.147  17.754  23.234  1.00  0.00     0.214 A 
ATOM    280  N3    G A  12      -5.725  19.815  24.432  1.00  0.00    -0.044 NA
ATOM    281  C5    G A  12      -3.481  19.846  23.426  1.00  0.00     0.173 A 
ATOM    282  C2    G A  12      -5.644  21.132  24.424  1.00  0.00     0.703 A 
ATOM    283  N1    G A  12      -4.564  21.833  23.953  1.00  0.00    -0.153 N 
ATOM    284  N2    G A  12      -6.658  21.860  24.897  1.00  0.00    -0.233 N 
ATOM    285  C6    G A  12      -3.413  21.264  23.421  1.00  0.00     0.292 A 
ATOM    286  H1    G A  12      -4.605  22.840  23.994  1.00  0.00     0.187 HD
ATOM    287  O6    G A  12      -2.498  21.992  23.019  1.00  0.00    -0.265 OA
ATOM    288  H22   G A  12      -6.605  22.867  24.906  1.00  0.00     0.174 HD
ATOM    289  H21   G A  12      -7.478  21.392  25.257  1.00  0.00     0.174 HD
ATOM    290  N7    G A  12      -2.564  18.896  22.996  1.00  0.00    -0.234 NA
ATOM    291  C3'   G A  12      -6.477  16.008  22.293  1.00  0.00     0.198 C 
BRANCH 277 292
ATOM    292  O2'   G A  12      -7.658  16.396  24.379  1.00  0.00    -0.388 OA
ATOM    293 'HO2   G A  12      -8.143  17.144  24.729  1.00  0.00     0.210 HD
ENDBRANCH 277 292
BRANCH 291 294
ATOM    294  O3'   G A  12      -7.709  15.500  21.784  1.00  0.00    -0.279 OA
BRANCH 294 295
ATOM    295  P     T A  13      -8.037  15.628  20.214  1.00  0.00     0.408 P 
ATOM    296  OP2   T A  13      -6.970  14.927  19.454  1.00  0.00    -0.624 OA
ATOM    297  OP1   T A  13      -9.456  15.231  20.022  1.00  0.00    -0.624 OA
BRANCH 295 298
ATOM    298  O5'   T A  13      -7.911  17.188  19.917  1.00  0.00    -0.287 OA
BRANCH 298 299
ATOM    299  C5'   T A  13      -8.717  17.813  18.921  1.00  0.00     0.216 C 
BRANCH 299 300
ATOM    300  C4'   T A  13      -7.859  18.262  17.760  1.00  0.00     0.180 C 
ATOM    301  O4'   T A  13      -8.471  19.433  17.148  1.00  0.00    -0.353 OA
ATOM    302  C1'   T A  13      -7.468  20.378  16.818  1.00  0.00     0.264 C 
ATOM    303  N1    T A  13      -7.634  21.557  17.682  1.00  0.00    -0.280 N 
ATOM    304  C2'   T A  13      -6.121  19.679  16.991  1.00  0.00     0.199 C 
ATOM    305  C6    T A  13      -8.424  21.514  18.809  1.00  0.00     0.104 A 
ATOM    306  C2    T A  13      -6.964  22.712  17.326  1.00  0.00     0.331 A 
ATOM    307  C5    T A  13      -8.583  22.570  19.611  1.00  0.00     0.092 A 
ATOM    308  C4    T A  13      -7.920  23.801  19.312  1.00  0.00     0.250 A 
ATOM    309  O4    T A  13      -7.988  24.839  19.969  1.00  0.00    -0.268 OA
ATOM    310  N3    T A  13      -7.149  23.774  18.173  1.00  0.00    -0.275 N 
ATOM    311  H3    T A  13      -6.663  24.624  17.933  1.00  0.00     0.173 HD
ATOM    312  O2    T A  13      -6.260  22.793  16.337  1.00  0.00    -0.246 OA
ATOM    313  C3'   T A  13      -6.449  18.712  18.121  1.00  0.00     0.198 C 
ATOM    314  O2'   T A  13      -5.810  18.987  15.798  1.00  0.00    -0.388 OA
ATOM    315  O3'   T A  13      -5.540  17.617  18.180  1.00  0.00    -0.279 OA
ATOM    316  P     C A  14      -4.273  17.682  19.168  1.00  0.00     0.408 P 
ATOM    317  OP2   C A  14      -4.714  18.264  20.462  1.00  0.00    -0.624 OA
ATOM    318  OP1   C A  14      -3.625  16.346  19.147  1.00  0.00    -0.624 OA
ATOM    319  O5'   C A  14      -3.289  18.723  18.468  1.00  0.00    -0.287 OA
ATOM    320  C5'   C A  14      -2.616  18.394  17.253  1.00  0.00     0.216 C 
ATOM    321  C4'   C A  14      -1.855  19.594  16.735  1.00  0.00     0.180 C 
ATOM    322  O4'   C A  14      -2.774  20.709  16.573  1.00  0.00    -0.353 OA
ATOM    323  C3'   C A  14      -0.773  20.138  17.655  1.00  0.00     0.198 C 
ATOM    324  C1'   C A  14      -2.113  21.922  16.889  1.00  0.00     0.264 C 
ATOM    325  N1    C A  14      -2.820  22.559  18.013  1.00  0.00    -0.278 N 
ATOM    326  C2'   C A  14      -0.653  21.585  17.195  1.00  0.00     0.199 C 
ATOM    327  C6    C A  14      -3.699  21.848  18.783  1.00  0.00     0.102 A 
ATOM    328  C2    C A  14      -2.581  23.910  18.283  1.00  0.00     0.352 A 
ATOM    329  C5    C A  14      -4.349  22.424  19.801  1.00  0.00     0.067 A 
ATOM    330  C4    C A  14      -4.086  23.803  20.051  1.00  0.00     0.128 A 
ATOM    331  N3    C A  14      -3.228  24.505  19.309  1.00  0.00    -0.177 NA
ATOM    332  N4    C A  14      -4.703  24.433  21.049  1.00  0.00    -0.384 N 
ATOM    333  H42   C A  14      -4.507  25.409  21.220  1.00  0.00     0.157 HD
ATOM    334  H41   C A  14      -5.361  23.940  21.636  1.00  0.00     0.157 HD
ATOM    335  O2    C A  14      -1.776  24.533  17.575  1.00  0.00    -0.244 OA
ATOM    336  O2'   C A  14       0.093  21.682  15.996  1.00  0.00    -0.388 OA
ATOM    337 'HO2   C A  14       0.565  20.856  15.892  1.00  0.00     0.210 HD
ATOM    338  O3'   C A  14       0.450  19.418  17.512  1.00  0.00    -0.279 OA
ATOM    339  P     T A  15       1.567  19.503  18.667  1.00  0.00     0.408 P 
ATOM    340  OP2   T A  15       0.894  19.360  19.984  1.00  0.00    -0.624 OA
ATOM    341  O5'   T A  15       2.129  20.989  18.554  1.00  0.00    -0.287 OA
ATOM    342  OP1   T A  15       2.658  18.565  18.296  1.00  0.00    -0.624 OA
ATOM    343  C5'   T A  15       2.848  21.417  17.397  1.00  0.00     0.216 C 
ATOM    344  C4'   T A  15       3.479  22.767  17.644  1.00  0.00     0.180 C 
ATOM    345  C3'   T A  15       4.158  22.939  18.996  1.00  0.00     0.198 C 
ATOM    346  O4'   T A  15       2.441  23.786  17.632  1.00  0.00    -0.353 OA
ATOM    347  O3'   T A  15       5.492  22.438  18.985  1.00  0.00    -0.279 OA
ATOM    348  C2'   T A  15       4.097  24.447  19.198  1.00  0.00     0.199 C 
ATOM    349  P     G A  16       6.146  21.879  20.343  1.00  0.00     0.408 P 
ATOM    350  O5'   G A  16       6.404  23.188  21.215  1.00  0.00    -0.287 OA
ATOM    351  OP2   G A  16       5.138  21.044  21.046  1.00  0.00    -0.624 OA
ATOM    352  OP1   G A  16       7.465  21.292  19.989  1.00  0.00    -0.624 OA
ATOM    353  C5'   G A  16       7.537  24.020  20.973  1.00  0.00     0.216 C 
ATOM    354  C4'   G A  16       7.403  25.322  21.728  1.00  0.00     0.180 C 
ATOM    355  C3'   G A  16       7.537  25.226  23.241  1.00  0.00     0.198 C 
ATOM    356  O4'   G A  16       6.068  25.857  21.532  1.00  0.00    -0.353 OA
ATOM    357  C2'   G A  16       6.802  26.475  23.711  1.00  0.00     0.199 C 
ATOM    358  O3'   G A  16       8.903  25.212  23.651  1.00  0.00    -0.279 OA
ATOM    359  O2'   G A  16       7.609  27.628  23.562  1.00  0.00    -0.388 OA
ATOM    360  C1'   G A  16       5.656  26.547  22.700  1.00  0.00     0.262 C 
ATOM    361 'HO2   G A  16       8.519  27.328  23.560  1.00  0.00     0.210 HD
ATOM    362  N9    G A  16       4.417  25.944  23.181  1.00  0.00    -0.293 N 
ATOM    363  C4    G A  16       3.564  26.471  24.122  1.00  0.00     0.187 A 
ATOM    364  C8    G A  16       3.868  24.747  22.791  1.00  0.00     0.214 A 
ATOM    365  N3    G A  16       3.728  27.642  24.773  1.00  0.00    -0.044 NA
ATOM    366  C5    G A  16       2.538  25.558  24.239  1.00  0.00     0.173 A 
ATOM    367  C2    G A  16       2.740  27.878  25.616  1.00  0.00     0.703 A 
ATOM    368  N1    G A  16       1.674  27.037  25.808  1.00  0.00    -0.153 N 
ATOM    369  N2    G A  16       2.746  28.995  26.347  1.00  0.00    -0.233 N 
ATOM    370  H1    G A  16       0.972  27.313  26.477  1.00  0.00     0.187 HD
ATOM    371  C6    G A  16       1.484  25.827  25.150  1.00  0.00     0.292 A 
ATOM    372  O6    G A  16       0.485  25.143  25.397  1.00  0.00    -0.265 OA
ATOM    373  H22   G A  16       1.998  29.187  27.000  1.00  0.00     0.174 HD
ATOM    374  H21   G A  16       3.509  29.648  26.245  1.00  0.00     0.174 HD
ATOM    375  N7    G A  16       2.742  24.476  23.391  1.00  0.00    -0.234 NA
ATOM    376  P     A A  17       9.308  24.555  25.063  1.00  0.00     0.408 P 
ATOM    377  O5'   A A  17       8.568  25.465  26.142  1.00  0.00    -0.287 OA
ATOM    378  OP1   A A  17      10.772  24.735  25.230  1.00  0.00    -0.624 OA
ATOM    379  OP2   A A  17       8.725  23.191  25.129  1.00  0.00    -0.624 OA
ATOM    380  C5'   A A  17       8.950  26.826  26.342  1.00  0.00     0.216 C 
ATOM    381  C4'   A A  17       8.273  27.384  27.571  1.00  0.00     0.180 C 
ATOM    382  O4'   A A  17       6.877  27.642  27.269  1.00  0.00    -0.353 OA
ATOM    383  C3'   A A  17       8.221  26.457  28.775  1.00  0.00     0.198 C 
ATOM    384  C1'   A A  17       6.094  27.437  28.432  1.00  0.00     0.262 C 
ATOM    385  C2'   A A  17       7.032  27.001  29.561  1.00  0.00     0.199 C 
ATOM    386  N9    A A  17       5.055  26.457  28.118  1.00  0.00    -0.294 N 
ATOM    387  O2'   A A  17       7.397  28.145  30.309  1.00  0.00    -0.388 OA
ATOM    388 'HO2   A A  17       8.353  28.135  30.378  1.00  0.00     0.210 HD
ATOM    389  C4    A A  17       3.850  26.320  28.764  1.00  0.00     0.167 A 
ATOM    390  C8    A A  17       5.065  25.496  27.138  1.00  0.00     0.214 A 
ATOM    391  N3    A A  17       3.394  27.045  29.799  1.00  0.00    -0.222 NA
ATOM    392  C5    A A  17       3.196  25.282  28.126  1.00  0.00     0.149 A 
ATOM    393  C2    A A  17       2.181  26.633  30.162  1.00  0.00     0.237 A 
ATOM    394  N1    A A  17       1.429  25.652  29.646  1.00  0.00    -0.222 NA
ATOM    395  C6    A A  17       1.919  24.942  28.607  1.00  0.00     0.155 A 
ATOM    396  N6    A A  17       1.169  23.965  28.094  1.00  0.00    -0.382 N 
ATOM    397  H62   A A  17       0.258  23.769  28.485  1.00  0.00     0.157 HD
ATOM    398  H61   A A  17       1.514  23.422  27.317  1.00  0.00     0.157 HD
ATOM    399  N7    A A  17       3.976  24.768  27.099  1.00  0.00    -0.236 NA
ATOM    400  O3'   A A  17       9.433  26.504  29.523  1.00  0.00    -0.279 OA
ATOM    401  P     C A  18       9.991  25.171  30.230  1.00  0.00     0.408 P 
ATOM    402  O5'   C A  18       8.929  24.866  31.378  1.00  0.00    -0.287 OA
ATOM    403  OP2   C A  18       9.937  24.058  29.246  1.00  0.00    -0.624 OA
ATOM    404  OP1   C A  18      11.283  25.518  30.874  1.00  0.00    -0.624 OA
ATOM    405  C5'   C A  18       8.638  25.832  32.387  1.00  0.00     0.216 C 
ATOM    406  C4'   C A  18       7.375  25.449  33.124  1.00  0.00     0.180 C 
ATOM    407  C3'   C A  18       7.342  24.022  33.655  1.00  0.00     0.198 C 
ATOM    408  O4'   C A  18       6.255  25.535  32.203  1.00  0.00    -0.353 OA
ATOM    409  C2'   C A  18       5.853  23.697  33.656  1.00  0.00     0.199 C 
ATOM    410  O3'   C A  18       7.917  23.939  34.957  1.00  0.00    -0.279 OA
ATOM    411  C1'   C A  18       5.381  24.441  32.406  1.00  0.00     0.264 C 
ATOM    412  O2'   C A  18       5.212  24.254  34.789  1.00  0.00    -0.388 OA
ATOM    413  N1    C A  18       5.380  23.617  31.187  1.00  0.00    -0.278 N 
ATOM    414  C2    C A  18       4.158  23.204  30.650  1.00  0.00     0.352 A 
ATOM    415  C6    C A  18       6.553  23.257  30.584  1.00  0.00     0.102 A 
ATOM    416  O2    C A  18       3.108  23.549  31.212  1.00  0.00    -0.244 OA
ATOM    417  N3    C A  18       4.149  22.441  29.534  1.00  0.00    -0.177 NA
ATOM    418  C4    C A  18       5.299  22.093  28.957  1.00  0.00     0.128 A 
ATOM    419  C5    C A  18       6.560  22.503  29.478  1.00  0.00     0.067 A 
ATOM    420  N4    C A  18       5.241  21.338  27.861  1.00  0.00    -0.384 N 
ATOM    421  H41   C A  18       6.090  21.051  27.395  1.00  0.00     0.157 HD
ATOM    422  H42   C A  18       4.343  21.053  27.498  1.00  0.00     0.157 HD
ATOM    423 'HO2   C A  18       5.903  24.469  35.416  1.00  0.00     0.210 HD
ATOM    424  P     T A  19       8.899  22.719  35.323  1.00  0.00     0.408 P 
ATOM    425  O5'   T A  19       7.914  21.558  35.792  1.00  0.00    -0.287 OA
ATOM    426  OP1   T A  19       9.705  23.141  36.498  1.00  0.00    -0.624 OA
ATOM    427  OP2   T A  19       9.589  22.273  34.084  1.00  0.00    -0.624 OA
ATOM    428  C1'   T A  15       2.714  24.759  18.627  1.00  0.00     0.264 C 
ATOM    429  O2'   T A  15       5.074  25.111  18.418  1.00  0.00    -0.388 OA
ATOM    430  N1    T A  15       1.642  24.712  19.631  1.00  0.00    -0.280 N 
ATOM    431  C2    T A  15       1.351  25.876  20.319  1.00  0.00     0.331 A 
ATOM    432  C6    T A  15       0.950  23.549  19.885  1.00  0.00     0.104 A 
ATOM    433  N3    T A  15       0.348  25.766  21.246  1.00  0.00    -0.275 N 
ATOM    434  O2    T A  15       1.936  26.926  20.123  1.00  0.00    -0.246 OA
ATOM    435  H3    T A  15       0.126  26.602  21.767  1.00  0.00     0.173 HD
ATOM    436  C4    T A  15      -0.383  24.641  21.548  1.00  0.00     0.250 A 
ATOM    437  O4    T A  15      -1.265  24.706  22.405  1.00  0.00    -0.268 OA
ATOM    438  C5    T A  15      -0.026  23.480  20.795  1.00  0.00     0.092 A 
ATOM    439 'HO2   T A  15       5.865  25.167  18.955  1.00  0.00     0.210 HD
ATOM    440 'HO2   T A  13      -5.443  18.141  16.058  1.00  0.00     0.210 HD
BRANCH 425 441
ATOM    441  C5'   T A  19       8.367  20.209  35.898  1.00  0.00     0.216 C 
BRANCH 441 442
ATOM    442  C4'   T A  19       7.389  19.274  35.228  1.00  0.00     0.180 C 
ATOM    443  O4'   T A  19       8.005  17.963  35.098  1.00  0.00    -0.353 OA
ATOM    444  C1'   T A  19       7.079  16.955  35.454  1.00  0.00     0.264 C 
ATOM    445  C2'   T A  19       5.709  17.615  35.609  1.00  0.00     0.199 C 
ATOM    446  C3'   T A  19       6.098  19.036  36.002  1.00  0.00     0.198 C 
BRANCH 444 447
ATOM    447  N1    T A  19       7.565  16.291  36.672  1.00  0.00    -0.280 N 
ATOM    448  C2    T A  19       6.623  15.792  37.553  1.00  0.00     0.331 A 
ATOM    449  O2    T A  19       5.423  15.891  37.366  1.00  0.00    -0.246 OA
ATOM    450  N3    T A  19       7.137  15.175  38.663  1.00  0.00    -0.275 N 
ATOM    451  H3    T A  19       6.468  14.794  39.313  1.00  0.00     0.173 HD
ATOM    452  C4    T A  19       8.466  15.013  38.981  1.00  0.00     0.250 A 
ATOM    453  O4    T A  19       8.773  14.422  40.016  1.00  0.00    -0.268 OA
ATOM    454  C5    T A  19       9.377  15.561  38.025  1.00  0.00     0.092 A 
ATOM    455  C6    T A  19       8.912  16.166  36.929  1.00  0.00     0.104 A 
ENDBRANCH 444 447
BRANCH 445 456
ATOM    456  O2'   T A  19       5.050  17.591  34.357  1.00  0.00    -0.388 OA
ATOM    457 'HO2   T A  19       4.569  16.764  34.318  1.00  0.00     0.210 HD
ENDBRANCH 445 456
BRANCH 446 458
ATOM    458  O3'   T A  19       5.101  19.988  35.639  1.00  0.00    -0.279 OA
BRANCH 458 459
ATOM    459  P     C A  20       3.985  20.424  36.712  1.00  0.00     0.408 P 
ATOM    460  OP2   C A  20       4.625  20.520  38.048  1.00  0.00    -0.624 OA
ATOM    461  OP1   C A  20       3.272  21.601  36.153  1.00  0.00    -0.624 OA
BRANCH 459 462
ATOM    462  O5'   C A  20       2.973  19.194  36.724  1.00  0.00    -0.287 OA
BRANCH 462 463
ATOM    463  C5'   C A  20       2.812  18.381  37.885  1.00  0.00     0.216 C 
ATOM    464  C4'   C A  20       1.634  17.452  37.708  1.00  0.00     0.180 C 
ATOM    465  C3'   C A  20       1.459  16.893  36.301  1.00  0.00     0.198 C 
ATOM    466  O4'   C A  20       0.412  18.196  37.973  1.00  0.00    -0.353 OA
ATOM    467  C2'   C A  20      -0.047  16.675  36.212  1.00  0.00     0.199 C 
ATOM    468  C1'   C A  20      -0.565  17.877  36.999  1.00  0.00     0.264 C 
ATOM    469  N1    C A  20      -0.804  19.072  36.172  1.00  0.00    -0.278 N 
ATOM    470  C2    C A  20      -2.107  19.351  35.748  1.00  0.00     0.352 A 
ATOM    471  C6    C A  20       0.226  19.900  35.822  1.00  0.00     0.102 A 
ATOM    472  O2    C A  20      -3.023  18.585  36.080  1.00  0.00    -0.244 OA
ATOM    473  N3    C A  20      -2.334  20.446  34.988  1.00  0.00    -0.177 NA
ATOM    474  C4    C A  20      -1.322  21.246  34.651  1.00  0.00     0.128 A 
ATOM    475  C5    C A  20       0.015  20.987  35.071  1.00  0.00     0.067 A 
ATOM    476  N4    C A  20      -1.596  22.313  33.902  1.00  0.00    -0.384 N 
ATOM    477  H42   C A  20      -2.550  22.484  33.614  1.00  0.00     0.157 HD
ATOM    478  H41   C A  20      -0.859  22.944  33.626  1.00  0.00     0.157 HD
BRANCH 465 479
ATOM    479  O3'   C A  20       2.197  15.686  36.125  1.00  0.00    -0.279 OA
BRANCH 479 480
ATOM    480  P     C A  21       2.568  15.187  34.642  1.00  0.00     0.408 P 
ATOM    481  OP2   C A  21       1.760  13.977  34.337  1.00  0.00    -0.624 OA
ATOM    482  OP1   C A  21       2.488  16.366  33.745  1.00  0.00    -0.624 OA
BRANCH 480 483
ATOM    483  O5'   C A  21       4.097  14.755  34.756  1.00  0.00    -0.287 OA
BRANCH 483 484
ATOM    484  C5'   C A  21       4.552  13.512  34.225  1.00  0.00     0.216 C 
BRANCH 484 485
ATOM    485  C4'   C A  21       5.379  12.778  35.252  1.00  0.00     0.180 C 
ATOM    486  C3'   C A  21       5.499  11.276  35.034  1.00  0.00     0.198 C 
ATOM    487  O3'   C A  21       6.582  10.961  34.161  1.00  0.00    -0.279 OA
ATOM    488  C2'   C A  21       5.719  10.753  36.447  1.00  0.00     0.199 C 
ATOM    489  P     A A  22       6.388   9.848  33.017  1.00  0.00     0.408 P 
ATOM    490  OP2   A A  22       5.166  10.183  32.243  1.00  0.00    -0.624 OA
ATOM    491  O5'   A A  22       6.116   8.505  33.828  1.00  0.00    -0.287 OA
ATOM    492  OP1   A A  22       7.687   9.709  32.311  1.00  0.00    -0.624 OA
ATOM    493  C5'   A A  22       7.115   7.947  34.680  1.00  0.00     0.216 C 
ATOM    494  C4'   A A  22       6.575   6.728  35.393  1.00  0.00     0.180 C 
ATOM    495  C3'   A A  22       5.758   5.774  34.533  1.00  0.00     0.198 C 
ATOM    496  O4'   A A  22       5.654   7.158  36.435  1.00  0.00    -0.353 OA
ATOM    497  O3'   A A  22       6.585   4.842  33.843  1.00  0.00    -0.279 OA
ATOM    498  C2'   A A  22       4.857   5.106  35.562  1.00  0.00     0.199 C 
ATOM    499  P     G A  23       6.149   4.311  32.389  1.00  0.00     0.408 P 
ATOM    500  OP2   G A  23       5.870   5.486  31.523  1.00  0.00    -0.624 OA
ATOM    501  OP1   G A  23       7.162   3.312  31.965  1.00  0.00    -0.624 OA
ATOM    502  C1'   A A  22       4.531   6.292  36.466  1.00  0.00     0.262 C 
ATOM    503  O2'   A A  22       5.568   4.140  36.312  1.00  0.00    -0.388 OA
ATOM    504  N9    A A  22       3.354   7.049  36.039  1.00  0.00    -0.294 N 
ATOM    505  C4    A A  22       2.041   6.683  36.212  1.00  0.00     0.167 A 
ATOM    506  C8    A A  22       3.322   8.257  35.388  1.00  0.00     0.214 A 
ATOM    507  N3    A A  22       1.575   5.568  36.802  1.00  0.00    -0.222 NA
ATOM    508  C5    A A  22       1.289   7.699  35.650  1.00  0.00     0.149 A 
ATOM    509  C2    A A  22       0.244   5.550  36.785  1.00  0.00     0.237 A 
ATOM    510  N1    A A  22      -0.609   6.452  36.285  1.00  0.00    -0.222 NA
ATOM    511  C6    A A  22      -0.109   7.559  35.699  1.00  0.00     0.155 A 
ATOM    512  N6    A A  22      -0.959   8.457  35.201  1.00  0.00    -0.382 N 
ATOM    513  H61   A A  22      -0.605   9.293  34.758  1.00  0.00     0.157 HD
ATOM    514  H62   A A  22      -1.954   8.298  35.267  1.00  0.00     0.157 HD
ATOM    515  N7    A A  22       2.112   8.690  35.134  1.00  0.00    -0.236 NA
ATOM    516 'HO2   A A  22       6.314   3.871  35.775  1.00  0.00     0.210 HD
ATOM    517  C1'   C A  21       4.806  11.680  37.248  1.00  0.00     0.264 C 
ATOM    518  O2'   C A  21       7.056  10.957  36.866  1.00  0.00    -0.388 OA
ATOM    519  N1    C A  21       3.434  11.168  37.412  1.00  0.00    -0.278 N 
ATOM    520  O4'   C A  21       4.743  12.913  36.553  1.00  0.00    -0.353 OA
ATOM    521  C6    C A  21       2.402  11.678  36.675  1.00  0.00     0.102 A 
ATOM    522  C2    C A  21       3.201  10.146  38.336  1.00  0.00     0.352 A 
ATOM    523  C5    C A  21       1.154  11.215  36.817  1.00  0.00     0.067 A 
ATOM    524  C4    C A  21       0.948  10.172  37.766  1.00  0.00     0.128 A 
ATOM    525  N4    C A  21      -0.271   9.668  37.954  1.00  0.00    -0.384 N 
ATOM    526  N3    C A  21       1.947   9.668  38.491  1.00  0.00    -0.177 NA
ATOM    527  H41   C A  21      -1.055  10.021  37.424  1.00  0.00     0.157 HD
ATOM    528  H42   C A  21      -0.402   8.927  38.627  1.00  0.00     0.157 HD
ATOM    529  O2    C A  21       4.154   9.701  38.993  1.00  0.00    -0.244 OA
ATOM    530 'HO2   C A  21       7.565  11.143  36.076  1.00  0.00     0.210 HD
BRANCH 499 531
ATOM    531  O5'   G A  23       4.776   3.546  32.653  1.00  0.00    -0.287 OA
BRANCH 531 532
ATOM    532  C5'   G A  23       4.228   2.663  31.677  1.00  0.00     0.216 C 
BRANCH 532 533
ATOM    533  C4'   G A  23       4.366   1.229  32.131  1.00  0.00     0.180 C 
ATOM    534  C3'   G A  23       3.097   0.392  32.061  1.00  0.00     0.198 C 
ATOM    535  C2'   G A  23       3.368  -0.696  33.093  1.00  0.00     0.199 C 
ATOM    536  C1'   G A  23       4.115   0.093  34.168  1.00  0.00     0.262 C 
ATOM    537  N9    G A  23       3.250   0.586  35.235  1.00  0.00    -0.293 N 
ATOM    538  O4'   G A  23       4.729   1.205  33.537  1.00  0.00    -0.353 OA
ATOM    539  C4    G A  23       2.551  -0.180  36.137  1.00  0.00     0.187 A 
ATOM    540  C8    G A  23       2.968   1.895  35.541  1.00  0.00     0.214 A 
ATOM    541  N3    G A  23       2.543  -1.528  36.193  1.00  0.00    -0.044 NA
ATOM    542  C5    G A  23       1.882   0.718  36.940  1.00  0.00     0.173 A 
ATOM    543  C2    G A  23       1.773  -1.976  37.167  1.00  0.00     0.703 A 
ATOM    544  N2    G A  23       1.651  -3.292  37.361  1.00  0.00    -0.233 N 
ATOM    545  N1    G A  23       1.067  -1.170  38.021  1.00  0.00    -0.153 N 
ATOM    546  H21   G A  23       2.154  -3.924  36.755  1.00  0.00     0.174 HD
ATOM    547  H22   G A  23       1.060  -3.651  38.096  1.00  0.00     0.174 HD
ATOM    548  H1    G A  23       0.505  -1.611  38.732  1.00  0.00     0.187 HD
ATOM    549  C6    G A  23       1.059   0.220  37.984  1.00  0.00     0.292 A 
ATOM    550  O6    G A  23       0.386   0.852  38.805  1.00  0.00    -0.265 OA
ATOM    551  N7    G A  23       2.155   2.024  36.553  1.00  0.00    -0.234 NA
BRANCH 534 552
ATOM    552  O3'   G A  23       2.885  -0.137  30.755  1.00  0.00    -0.279 OA
BRANCH 552 553
ATOM    553  P     A A  24       1.388  -0.276  30.182  1.00  0.00     0.408 P 
ATOM    554  OP1   A A  24       0.477   0.360  31.170  1.00  0.00    -0.624 OA
ATOM    555  OP2   A A  24       1.165  -1.688  29.783  1.00  0.00    -0.624 OA
BRANCH 553 556
ATOM    556  O5'   A A  24       1.392   0.620  28.865  1.00  0.00    -0.287 OA
BRANCH 556 557
ATOM    557  C5'   A A  24       1.251   0.031  27.573  1.00  0.00     0.216 C 
BRANCH 557 558
ATOM    558  C4'   A A  24       0.541   0.983  26.639  1.00  0.00     0.180 C 
ATOM    559  C3'   A A  24       0.301   2.381  27.190  1.00  0.00     0.198 C 
ATOM    560  O3'   A A  24       1.427   3.229  26.977  1.00  0.00    -0.279 OA
ATOM    561  C2'   A A  24      -0.924   2.836  26.408  1.00  0.00     0.199 C 
ATOM    562  P     T A  25       1.730   4.429  28.006  1.00  0.00     0.408 P 
ATOM    563  OP1   T A  25       2.885   5.192  27.469  1.00  0.00    -0.624 OA
ATOM    564  O5'   T A  25       0.434   5.352  27.913  1.00  0.00    -0.287 OA
ATOM    565  OP2   T A  25       1.797   3.864  29.378  1.00  0.00    -0.624 OA
ATOM    566  C5'   T A  25       0.127   6.071  26.720  1.00  0.00     0.216 C 
ATOM    567  C4'   T A  25      -1.097   6.932  26.930  1.00  0.00     0.180 C 
ATOM    568  C3'   T A  25      -1.126   7.719  28.233  1.00  0.00     0.198 C 
ATOM    569  O4'   T A  25      -2.269   6.076  26.995  1.00  0.00    -0.353 OA
ATOM    570  O3'   T A  25      -0.436   8.960  28.109  1.00  0.00    -0.279 OA
ATOM    571  C2'   T A  25      -2.620   7.906  28.475  1.00  0.00     0.199 C 
ATOM    572  P     C A  26       0.032   9.749  29.430  1.00  0.00     0.408 P 
ATOM    573  OP1   C A  26       0.891  10.877  28.992  1.00  0.00    -0.624 OA
ATOM    574  O5'   C A  26      -1.321  10.357  30.014  1.00  0.00    -0.287 OA
ATOM    575  OP2   C A  26       0.559   8.759  30.406  1.00  0.00    -0.624 OA
ATOM    576  C5'   C A  26      -1.507  10.523  31.418  1.00  0.00     0.216 C 
ATOM    577  C4'   C A  26      -2.958  10.812  31.722  1.00  0.00     0.180 C 
ATOM    578  C3'   C A  26      -3.292  10.937  33.203  1.00  0.00     0.198 C 
ATOM    579  O4'   C A  26      -3.766   9.702  31.241  1.00  0.00    -0.353 OA
ATOM    580  O3'   C A  26      -3.151  12.282  33.655  1.00  0.00    -0.279 OA
ATOM    581  C2'   C A  26      -4.734  10.451  33.266  1.00  0.00     0.199 C 
ATOM    582  P     A A  27      -2.030  12.649  34.749  1.00  0.00     0.408 P 
ATOM    583  OP1   A A  27      -1.589  14.040  34.475  1.00  0.00    -0.624 OA
ATOM    584  OP2   A A  27      -1.023  11.557  34.793  1.00  0.00    -0.624 OA
ATOM    585  O5'   A A  27      -2.827  12.647  36.128  1.00  0.00    -0.287 OA
ATOM    586  C5'   A A  27      -4.036  13.391  36.276  1.00  0.00     0.216 C 
ATOM    587  C4'   A A  27      -4.755  12.972  37.536  1.00  0.00     0.180 C 
ATOM    588  C3'   A A  27      -3.867  12.495  38.677  1.00  0.00     0.198 C 
ATOM    589  O4'   A A  27      -5.604  11.828  37.237  1.00  0.00    -0.353 OA
ATOM    590  C2'   A A  27      -4.809  11.587  39.455  1.00  0.00     0.199 C 
ATOM    591  O2'   A A  27      -5.744  12.337  40.207  1.00  0.00    -0.388 OA
ATOM    592  C1'   A A  27      -5.545  10.899  38.307  1.00  0.00     0.262 C 
ATOM    593 'HO2   A A  27      -5.292  13.132  40.494  1.00  0.00     0.210 HD
ATOM    594  N9    A A  27      -4.881   9.686  37.831  1.00  0.00    -0.294 N 
ATOM    595  C4    A A  27      -4.970   8.436  38.394  1.00  0.00     0.167 A 
ATOM    596  C8    A A  27      -4.045   9.551  36.750  1.00  0.00     0.214 A 
ATOM    597  N3    A A  27      -5.680   8.080  39.478  1.00  0.00    -0.222 NA
ATOM    598  C5    A A  27      -4.175   7.613  37.617  1.00  0.00     0.149 A 
ATOM    599  C2    A A  27      -5.526   6.783  39.734  1.00  0.00     0.237 A 
ATOM    600  N1    A A  27      -4.797   5.870  39.079  1.00  0.00    -0.222 NA
ATOM    601  C6    A A  27      -4.095   6.261  37.993  1.00  0.00     0.155 A 
ATOM    602  N6    A A  27      -3.371   5.350  37.343  1.00  0.00    -0.382 N 
ATOM    603  H61   A A  27      -2.838   5.619  36.528  1.00  0.00     0.157 HD
ATOM    604  H62   A A  27      -3.356   4.392  37.665  1.00  0.00     0.157 HD
ATOM    605  N7    A A  27      -3.596   8.331  36.578  1.00  0.00    -0.236 NA
ATOM    606  O2'   C A  26      -5.633  11.454  32.832  1.00  0.00    -0.388 OA
ATOM    607  C1'   C A  26      -4.710   9.330  32.230  1.00  0.00     0.264 C 
ATOM    608 'HO2   C A  26      -5.171  12.289  32.913  1.00  0.00     0.210 HD
ATOM    609  N1    C A  26      -4.318   8.017  32.773  1.00  0.00    -0.278 N 
ATOM    610  C6    C A  26      -3.170   7.401  32.356  1.00  0.00     0.102 A 
ATOM    611  C2    C A  26      -5.140   7.405  33.723  1.00  0.00     0.352 A 
ATOM    612  C5    C A  26      -2.811   6.206  32.842  1.00  0.00     0.067 A 
ATOM    613  C4    C A  26      -3.670   5.606  33.807  1.00  0.00     0.128 A 
ATOM    614  N4    C A  26      -3.366   4.418  34.325  1.00  0.00    -0.384 N 
ATOM    615  N3    C A  26      -4.790   6.199  34.222  1.00  0.00    -0.177 NA
ATOM    616  H41   C A  26      -2.526   3.935  34.038  1.00  0.00     0.157 HD
ATOM    617  H42   C A  26      -3.982   3.995  35.005  1.00  0.00     0.157 HD
ATOM    618  O2    C A  26      -6.173   7.984  34.086  1.00  0.00    -0.244 OA
ATOM    619  C1'   T A  25      -3.177   6.578  27.960  1.00  0.00     0.264 C 
ATOM    620  O2'   T A  25      -3.141   8.954  27.681  1.00  0.00    -0.388 OA
ATOM    621  N1    T A  25      -3.348   5.562  29.008  1.00  0.00    -0.280 N 
ATOM    622  C6    T A  25      -2.356   4.647  29.287  1.00  0.00     0.104 A 
ATOM    623  C2    T A  25      -4.541   5.553  29.707  1.00  0.00     0.331 A 
ATOM    624  C5    T A  25      -2.491   3.712  30.233  1.00  0.00     0.092 A 
ATOM    625  C4    T A  25      -3.696   3.640  30.998  1.00  0.00     0.250 A 
ATOM    626  N3    T A  25      -4.642   4.581  30.668  1.00  0.00    -0.275 N 
ATOM    627  O4    T A  25      -3.933   2.837  31.901  1.00  0.00    -0.268 OA
ATOM    628  H3    T A  25      -5.512   4.551  31.180  1.00  0.00     0.173 HD
ATOM    629  O2    T A  25      -5.440   6.345  29.492  1.00  0.00    -0.246 OA
ATOM    630 'HO2   T A  25      -2.510   9.673  27.720  1.00  0.00     0.210 HD
ATOM    631  C1'   A A  24      -1.720   1.534  26.327  1.00  0.00     0.262 C 
ATOM    632  O4'   A A  24      -0.791   0.465  26.363  1.00  0.00    -0.353 OA
BRANCH 588 633
ATOM    633  O3'   A A  27      -3.378  13.581  39.460  1.00  0.00    -0.279 OA
BRANCH 633 634
ATOM    634  P     G A  28      -1.810  13.668  39.809  1.00  0.00     0.408 P 
ATOM    635  OP2   G A  28      -1.615  13.273  41.228  1.00  0.00    -0.624 OA
ATOM    636  OP1   G A  28      -1.080  12.941  38.740  1.00  0.00    -0.624 OA
BRANCH 634 637
ATOM    637  O5'   G A  28      -1.470  15.219  39.668  1.00  0.00    -0.287 OA
BRANCH 637 638
ATOM    638  C5'   G A  28      -0.396  15.803  40.403  1.00  0.00     0.216 C 
BRANCH 638 639
ATOM    639  C4'   G A  28      -0.924  16.826  41.383  1.00  0.00     0.180 C 
ATOM    640  C3'   G A  28      -0.763  16.479  42.855  1.00  0.00     0.198 C 
ATOM    641  C2'   G A  28      -1.814  17.369  43.513  1.00  0.00     0.199 C 
ATOM    642  O2'   G A  28      -1.338  18.693  43.654  1.00  0.00    -0.388 OA
ATOM    643  C1'   G A  28      -2.929  17.359  42.463  1.00  0.00     0.262 C 
ATOM    644 'HO2   G A  28      -0.392  18.661  43.509  1.00  0.00     0.210 HD
ATOM    645  O4'   G A  28      -2.359  16.959  41.229  1.00  0.00    -0.353 OA
ATOM    646  N9    G A  28      -4.026  16.450  42.785  1.00  0.00    -0.293 N 
ATOM    647  C8    G A  28      -4.392  15.315  42.103  1.00  0.00     0.214 A 
ATOM    648  C4    G A  28      -4.898  16.566  43.839  1.00  0.00     0.187 A 
ATOM    649  N7    G A  28      -5.419  14.707  42.631  1.00  0.00    -0.234 NA
ATOM    650  C5    G A  28      -5.750  15.488  43.732  1.00  0.00     0.173 A 
ATOM    651  C6    G A  28      -6.780  15.331  44.696  1.00  0.00     0.292 A 
ATOM    652  O6    G A  28      -7.637  14.442  44.775  1.00  0.00    -0.265 OA
ATOM    653  N1    G A  28      -6.755  16.351  45.641  1.00  0.00    -0.153 N 
ATOM    654  C2    G A  28      -5.857  17.387  45.657  1.00  0.00     0.703 A 
ATOM    655  H1    G A  28      -7.452  16.324  46.368  1.00  0.00     0.187 HD
ATOM    656  N3    G A  28      -4.894  17.546  44.768  1.00  0.00    -0.044 NA
ATOM    657  N2    G A  28      -5.995  18.268  46.651  1.00  0.00    -0.233 N 
ATOM    658  H21   G A  28      -5.358  19.049  46.708  1.00  0.00     0.174 HD
ATOM    659  H22   G A  28      -6.728  18.157  47.337  1.00  0.00     0.174 HD
BRANCH 640 660
ATOM    660  O3'   G A  28       0.555  16.758  43.319  1.00  0.00    -0.279 OA
BRANCH 660 661
ATOM    661  P     A A  29       1.439  15.583  43.973  1.00  0.00     0.408 P 
ATOM    662  OP2   A A  29       1.964  14.726  42.880  1.00  0.00    -0.624 OA
ATOM    663  OP1   A A  29       2.386  16.224  44.921  1.00  0.00    -0.624 OA
BRANCH 661 664
ATOM    664  O5'   A A  29       0.389  14.734  44.819  1.00  0.00    -0.287 OA
BRANCH 664 665
ATOM    665  C5'   A A  29      -0.021  13.436  44.391  1.00  0.00     0.216 C 
BRANCH 665 666
ATOM    666  C4'   A A  29       0.647  12.373  45.232  1.00  0.00     0.180 C 
ATOM    667  O4'   A A  29      -0.332  11.786  46.127  1.00  0.00    -0.353 OA
ATOM    668  C1'   A A  29      -0.013  10.424  46.351  1.00  0.00     0.262 C 
ATOM    669  N9    A A  29      -1.178   9.614  45.992  1.00  0.00    -0.294 N 
ATOM    670  C2'   A A  29       1.242  10.094  45.539  1.00  0.00     0.199 C 
ATOM    671  C8    A A  29      -2.196   9.935  45.127  1.00  0.00     0.214 A 
ATOM    672  C4    A A  29      -1.472   8.358  46.467  1.00  0.00     0.167 A 
ATOM    673  N7    A A  29      -3.106   8.999  45.014  1.00  0.00    -0.236 NA
ATOM    674  C5    A A  29      -2.659   7.993  45.858  1.00  0.00     0.149 A 
ATOM    675  C6    A A  29      -3.179   6.727  46.185  1.00  0.00     0.155 A 
ATOM    676  N6    A A  29      -4.314   6.239  45.681  1.00  0.00    -0.382 N 
ATOM    677  N1    A A  29      -2.485   5.969  47.061  1.00  0.00    -0.222 NA
ATOM    678  H62   A A  29      -4.637   5.321  45.956  1.00  0.00     0.157 HD
ATOM    679  H61   A A  29      -4.850   6.790  45.025  1.00  0.00     0.157 HD
ATOM    680  C2    A A  29      -1.346   6.459  47.571  1.00  0.00     0.237 A 
ATOM    681  N3    A A  29      -0.757   7.630  47.343  1.00  0.00    -0.222 NA
ATOM    682  O2'   A A  29       2.372  10.244  46.377  1.00  0.00    -0.388 OA
ATOM    683  C3'   A A  29       1.205  11.181  44.469  1.00  0.00     0.198 C 
ATOM    684 'HO2   A A  29       3.029  10.718  45.866  1.00  0.00     0.210 HD
ATOM    685  O3'   A A  29       2.496  11.463  43.934  1.00  0.00    -0.279 OA
ATOM    686  P     A A  30       3.000  10.698  42.611  1.00  0.00     0.408 P 
ATOM    687  O5'   A A  30       3.399   9.246  43.133  1.00  0.00    -0.287 OA
ATOM    688  OP2   A A  30       1.853  10.558  41.677  1.00  0.00    -0.624 OA
ATOM    689  OP1   A A  30       4.232  11.392  42.160  1.00  0.00    -0.624 OA
ATOM    690  C5'   A A  30       4.438   9.071  44.095  1.00  0.00     0.216 C 
ATOM    691  C4'   A A  30       4.500   7.629  44.542  1.00  0.00     0.180 C 
ATOM    692  C3'   A A  30       4.512   6.590  43.432  1.00  0.00     0.198 C 
ATOM    693  O4'   A A  30       3.303   7.310  45.294  1.00  0.00    -0.353 OA
ATOM    694  O3'   A A  30       5.822   6.416  42.896  1.00  0.00    -0.279 OA
ATOM    695  C2'   A A  30       4.002   5.339  44.143  1.00  0.00     0.199 C 
ATOM    696  P     G A  31       6.017   5.683  41.478  1.00  0.00     0.408 P 
ATOM    697  O5'   G A  31       5.780   4.141  41.811  1.00  0.00    -0.287 OA
ATOM    698  OP1   G A  31       7.441   5.857  41.096  1.00  0.00    -0.624 OA
ATOM    699  OP2   G A  31       4.948   6.145  40.553  1.00  0.00    -0.624 OA
ATOM    700  C5'   G A  31       4.584   3.470  41.410  1.00  0.00     0.216 C 
ATOM    701  C4'   G A  31       4.815   2.708  40.124  1.00  0.00     0.180 C 
ATOM    702  O4'   G A  31       5.947   3.302  39.427  1.00  0.00    -0.353 OA
ATOM    703  C3'   G A  31       5.171   1.235  40.295  1.00  0.00     0.198 C 
ATOM    704  C1'   G A  31       6.828   2.287  38.990  1.00  0.00     0.262 C 
ATOM    705  C2'   G A  31       6.076   0.962  39.098  1.00  0.00     0.199 C 
ATOM    706  N9    G A  31       8.043   2.356  39.797  1.00  0.00    -0.293 N 
ATOM    707  O2'   G A  31       5.320   0.771  37.917  1.00  0.00    -0.388 OA
ATOM    708 'HO2   G A  31       4.399   0.735  38.180  1.00  0.00     0.210 HD
ATOM    709  C4    G A  31       8.539   1.376  40.626  1.00  0.00     0.187 A 
ATOM    710  C8    G A  31       8.919   3.411  39.881  1.00  0.00     0.214 A 
ATOM    711  N3    G A  31       7.985   0.166  40.843  1.00  0.00    -0.044 NA
ATOM    712  C5    G A  31       9.695   1.902  41.163  1.00  0.00     0.173 A 
ATOM    713  C2    G A  31       8.694  -0.557  41.689  1.00  0.00     0.703 A 
ATOM    714  N2    G A  31       8.282  -1.786  42.015  1.00  0.00    -0.233 N 
ATOM    715  N1    G A  31       9.856  -0.131  42.278  1.00  0.00    -0.153 N 
ATOM    716  H22   G A  31       8.811  -2.355  42.658  1.00  0.00     0.174 HD
ATOM    717  H21   G A  31       7.430  -2.138  41.603  1.00  0.00     0.174 HD
ATOM    718  C6    G A  31      10.446   1.111  42.073  1.00  0.00     0.292 A 
ATOM    719  H1    G A  31      10.325  -0.762  42.909  1.00  0.00     0.187 HD
ATOM    720  O6    G A  31      11.497   1.396  42.660  1.00  0.00    -0.265 OA
ATOM    721  N7    G A  31       9.921   3.186  40.685  1.00  0.00    -0.234 NA
ATOM    722  O2'   A A  30       5.041   4.697  44.859  1.00  0.00    -0.388 OA
ATOM    723  C1'   A A  30       3.013   5.932  45.152  1.00  0.00     0.262 C 
ATOM    724 'HO2   A A  30       5.850   4.850  44.371  1.00  0.00     0.210 HD
ATOM    725  N9    A A  30       1.616   5.791  44.746  1.00  0.00    -0.294 N 
ATOM    726  C8    A A  30       0.891   6.604  43.910  1.00  0.00     0.214 A 
ATOM    727  C4    A A  30       0.757   4.790  45.131  1.00  0.00     0.167 A 
ATOM    728  N7    A A  30      -0.345   6.207  43.727  1.00  0.00    -0.236 NA
ATOM    729  C5    A A  30      -0.442   5.056  44.496  1.00  0.00     0.149 A 
ATOM    730  C6    A A  30      -1.499   4.156  44.728  1.00  0.00     0.155 A 
ATOM    731  N6    A A  30      -2.710   4.277  44.184  1.00  0.00    -0.382 N 
ATOM    732  N1    A A  30      -1.265   3.110  45.551  1.00  0.00    -0.222 NA
ATOM    733  H61   A A  30      -2.908   5.051  43.566  1.00  0.00     0.157 HD
ATOM    734  H62   A A  30      -3.428   3.593  44.382  1.00  0.00     0.157 HD
ATOM    735  C2    A A  30      -0.048   2.985  46.097  1.00  0.00     0.237 A 
ATOM    736  N3    A A  30       1.024   3.761  45.954  1.00  0.00    -0.222 NA
BRANCH 703 737
ATOM    737  O3'   G A  31       4.003   0.416  40.293  1.00  0.00    -0.279 OA
BRANCH 737 738
ATOM    738  P     G A  32       3.478  -0.241  41.666  1.00  0.00     0.408 P 
ATOM    739  OP2   G A  32       4.481   0.054  42.721  1.00  0.00    -0.624 OA
ATOM    740  OP1   G A  32       2.062   0.164  41.868  1.00  0.00    -0.624 OA
BRANCH 738 741
ATOM    741  O5'   G A  32       3.516  -1.810  41.382  1.00  0.00    -0.287 OA
BRANCH 741 742
ATOM    742  C5'   G A  32       2.502  -2.677  41.889  1.00  0.00     0.216 C 
BRANCH 742 743
ATOM    743  C4'   G A  32       1.555  -3.077  40.783  1.00  0.00     0.180 C 
ATOM    744  C3'   G A  32       0.073  -2.929  41.108  1.00  0.00     0.198 C 
ATOM    745  C2'   G A  32      -0.571  -4.020  40.261  1.00  0.00     0.199 C 
ATOM    746  O3'   G A  32      -0.408  -1.631  40.771  1.00  0.00    -0.279 OA
ATOM    747  O2'   G A  32      -0.703  -3.608  38.914  1.00  0.00    -0.388 OA
ATOM    748  C1'   G A  32       0.487  -5.120  40.336  1.00  0.00     0.262 C 
ATOM    749 'HO2   G A  32      -0.763  -2.652  38.925  1.00  0.00     0.210 HD
ATOM    750  N9    G A  32       0.293  -6.052  41.442  1.00  0.00    -0.293 N 
ATOM    751  O4'   G A  32       1.743  -4.491  40.501  1.00  0.00    -0.353 OA
ATOM    752  C4    G A  32      -0.782  -6.887  41.627  1.00  0.00     0.187 A 
ATOM    753  C8    G A  32       1.140  -6.274  42.501  1.00  0.00     0.214 A 
ATOM    754  C5    G A  32      -0.519  -7.570  42.795  1.00  0.00     0.173 A 
ATOM    755  N3    G A  32      -1.854  -6.989  40.814  1.00  0.00    -0.044 NA
ATOM    756  N7    G A  32       0.698  -7.174  43.334  1.00  0.00    -0.234 NA
ATOM    757  C6    G A  32      -1.464  -8.523  43.256  1.00  0.00     0.292 A 
ATOM    758  N1    G A  32      -2.557  -8.612  42.402  1.00  0.00    -0.153 N 
ATOM    759  O6    G A  32      -1.416  -9.231  44.268  1.00  0.00    -0.265 OA
ATOM    760  H1    G A  32      -3.282  -9.268  42.648  1.00  0.00     0.187 HD
ATOM    761  C2    G A  32      -2.723  -7.880  41.255  1.00  0.00     0.703 A 
ATOM    762  N2    G A  32      -3.844  -8.108  40.567  1.00  0.00    -0.233 N 
ATOM    763  H21   G A  32      -4.013  -7.593  39.716  1.00  0.00     0.174 HD
ATOM    764  H22   G A  32      -4.515  -8.790  40.895  1.00  0.00     0.174 HD
ATOM    765  P     C A  33      -1.553  -0.942  41.667  1.00  0.00     0.408 P 
ATOM    766  O5'   C A  33      -2.807  -1.915  41.510  1.00  0.00    -0.287 OA
ATOM    767  OP2   C A  33      -1.114  -0.974  43.084  1.00  0.00    -0.624 OA
ATOM    768  OP1   C A  33      -1.887   0.358  41.031  1.00  0.00    -0.624 OA
ATOM    769  C5'   C A  33      -3.640  -1.857  40.353  1.00  0.00     0.216 C 
ATOM    770  C4'   C A  33      -4.760  -2.867  40.462  1.00  0.00     0.180 C 
ATOM    771  C3'   C A  33      -5.722  -2.667  41.625  1.00  0.00     0.198 C 
ATOM    772  O4'   C A  33      -4.194  -4.182  40.696  1.00  0.00    -0.353 OA
ATOM    773  O3'   C A  33      -6.731  -1.710  41.308  1.00  0.00    -0.279 OA
ATOM    774  C2'   C A  33      -6.289  -4.068  41.828  1.00  0.00     0.199 C 
ATOM    775  P     T A  34      -7.602  -1.041  42.486  1.00  0.00     0.408 P 
ATOM    776  OP2   T A  34      -6.686  -0.295  43.387  1.00  0.00    -0.624 OA
ATOM    777  OP1   T A  34      -8.735  -0.330  41.840  1.00  0.00    -0.624 OA
ATOM    778  O5'   T A  34      -8.188  -2.284  43.292  1.00  0.00    -0.287 OA
ATOM    779  C5'   T A  34      -9.223  -3.098  42.739  1.00  0.00     0.216 C 
ATOM    780  C4'   T A  34      -9.804  -4.001  43.803  1.00  0.00     0.180 C 
ATOM    781  C3'   T A  34     -10.092  -3.341  45.143  1.00  0.00     0.198 C 
ATOM    782  O4'   T A  34      -8.844  -5.041  44.124  1.00  0.00    -0.353 OA
ATOM    783  C2'   T A  34     -10.066  -4.525  46.104  1.00  0.00     0.199 C 
ATOM    784  O3'   T A  34     -11.351  -2.673  45.133  1.00  0.00    -0.279 OA
ATOM    785  O2'   T A  34     -11.286  -5.241  46.056  1.00  0.00    -0.388 OA
ATOM    786  C1'   T A  34      -8.961  -5.390  45.492  1.00  0.00     0.264 C 
ATOM    787 'HO2   T A  34     -11.912  -4.668  45.612  1.00  0.00     0.210 HD
ATOM    788  N1    T A  34      -7.648  -5.210  46.128  1.00  0.00    -0.280 N 
ATOM    789  C2    T A  34      -7.188  -6.218  46.957  1.00  0.00     0.331 A 
ATOM    790  C6    T A  34      -6.899  -4.075  45.910  1.00  0.00     0.104 A 
ATOM    791  N3    T A  34      -5.961  -5.988  47.524  1.00  0.00    -0.275 N 
ATOM    792  O2    T A  34      -7.816  -7.239  47.171  1.00  0.00    -0.246 OA
ATOM    793  H3    T A  34      -5.609  -6.706  48.139  1.00  0.00     0.173 HD
ATOM    794  C4    T A  34      -5.162  -4.880  47.352  1.00  0.00     0.250 A 
ATOM    795  C5    T A  34      -5.705  -3.885  46.482  1.00  0.00     0.092 A 
ATOM    796  O4    T A  34      -4.078  -4.822  47.933  1.00  0.00    -0.268 OA
ATOM    797  P     G A  35     -11.423  -1.097  45.443  1.00  0.00     0.408 P 
ATOM    798  OP1   G A  35     -12.812  -0.658  45.152  1.00  0.00    -0.624 OA
ATOM    799  O5'   G A  35     -11.190  -1.002  47.017  1.00  0.00    -0.287 OA
ATOM    800  OP2   G A  35     -10.285  -0.426  44.760  1.00  0.00    -0.624 OA
ATOM    801  C5'   G A  35     -11.831  -1.910  47.912  1.00  0.00     0.216 C 
ATOM    802  C4'   G A  35     -11.431  -1.611  49.338  1.00  0.00     0.180 C 
ATOM    803  C3'   G A  35     -11.145  -0.146  49.644  1.00  0.00     0.198 C 
ATOM    804  O4'   G A  35     -10.184  -2.301  49.631  1.00  0.00    -0.353 OA
ATOM    805  O3'   G A  35     -12.330   0.556  50.003  1.00  0.00    -0.279 OA
ATOM    806  C2'   G A  35     -10.147  -0.240  50.790  1.00  0.00     0.199 C 
ATOM    807  P     C A  36     -12.713   1.915  49.235  1.00  0.00     0.408 P 
ATOM    808  OP1   C A  36     -13.915   2.475  49.902  1.00  0.00    -0.624 OA
ATOM    809  O5'   C A  36     -11.483   2.881  49.536  1.00  0.00    -0.287 OA
ATOM    810  OP2   C A  36     -12.745   1.639  47.776  1.00  0.00    -0.624 OA
ATOM    811  C5'   C A  36     -11.100   3.190  50.875  1.00  0.00     0.216 C 
ATOM    812  C4'   C A  36     -10.078   4.300  50.884  1.00  0.00     0.180 C 
ATOM    813  C3'   C A  36     -10.257   5.366  49.813  1.00  0.00     0.198 C 
ATOM    814  O4'   C A  36      -8.766   3.739  50.611  1.00  0.00    -0.353 OA
ATOM    815  O3'   C A  36     -11.197   6.360  50.213  1.00  0.00    -0.279 OA
ATOM    816  C2'   C A  36      -8.847   5.920  49.669  1.00  0.00     0.199 C 
ATOM    817  P     G A  37     -12.000   7.197  49.098  1.00  0.00     0.408 P 
ATOM    818  O5'   G A  37     -10.918   8.222  48.533  1.00  0.00    -0.287 OA
ATOM    819  OP2   G A  37     -12.384   6.275  47.998  1.00  0.00    -0.624 OA
ATOM    820  OP1   G A  37     -13.050   7.974  49.802  1.00  0.00    -0.624 OA
ATOM    821  C5'   G A  37     -10.323   9.207  49.379  1.00  0.00     0.216 C 
ATOM    822  C4'   G A  37      -9.737  10.324  48.548  1.00  0.00     0.180 C 
ATOM    823  C3'   G A  37     -10.453  10.605  47.232  1.00  0.00     0.198 C 
ATOM    824  O4'   G A  37      -8.380   9.960  48.169  1.00  0.00    -0.353 OA
ATOM    825  O3'   G A  37     -11.505  11.551  47.400  1.00  0.00    -0.279 OA
ATOM    826  C2'   G A  37      -9.330  11.132  46.350  1.00  0.00     0.199 C 
ATOM    827  P     T A  38     -12.738  11.567  46.367  1.00  0.00     0.408 P 
ATOM    828  OP2   T A  38     -13.249  10.180  46.222  1.00  0.00    -0.624 OA
ATOM    829  OP1   T A  38     -13.661  12.648  46.798  1.00  0.00    -0.624 OA
ATOM    830  O5'   T A  38     -12.076  12.001  44.984  1.00  0.00    -0.287 OA
ATOM    831  C5'   T A  38     -11.501  13.296  44.820  1.00  0.00     0.216 C 
ATOM    832  C4'   T A  38     -10.904  13.431  43.439  1.00  0.00     0.180 C 
ATOM    833  C3'   T A  38     -11.809  13.019  42.288  1.00  0.00     0.198 C 
ATOM    834  O4'   T A  38      -9.759  12.543  43.327  1.00  0.00    -0.353 OA
ATOM    835  O3'   T A  38     -12.689  14.072  41.906  1.00  0.00    -0.279 OA
ATOM    836  C2'   T A  38     -10.803  12.673  41.197  1.00  0.00     0.199 C 
ATOM    837  P     G A  39     -14.087  13.726  41.190  1.00  0.00     0.408 P 
ATOM    838  O5'   G A  39     -13.658  13.005  39.836  1.00  0.00    -0.287 OA
ATOM    839  OP2   G A  39     -14.815  12.744  42.034  1.00  0.00    -0.624 OA
ATOM    840  OP1   G A  39     -14.735  15.017  40.844  1.00  0.00    -0.624 OA
ATOM    841  C5'   G A  39     -12.888  13.694  38.851  1.00  0.00     0.216 C 
ATOM    842  C4'   G A  39     -12.546  12.765  37.710  1.00  0.00     0.180 C 
ATOM    843  O4'   G A  39     -11.574  11.785  38.154  1.00  0.00    -0.353 OA
ATOM    844  C3'   G A  39     -13.687  11.908  37.185  1.00  0.00     0.198 C 
ATOM    845  C1'   G A  39     -11.735  10.593  37.403  1.00  0.00     0.262 C 
ATOM    846  N9    G A  39     -11.883   9.475  38.332  1.00  0.00    -0.293 N 
ATOM    847  C2'   G A  39     -12.942  10.780  36.481  1.00  0.00     0.199 C 
ATOM    848  C4    G A  39     -11.666   8.148  38.050  1.00  0.00     0.187 A 
ATOM    849  C8    G A  39     -12.269   9.532  39.648  1.00  0.00     0.214 A 
ATOM    850  N3    G A  39     -11.272   7.643  36.862  1.00  0.00    -0.044 NA
ATOM    851  C5    G A  39     -11.938   7.475  39.223  1.00  0.00     0.173 A 
ATOM    852  C2    G A  39     -11.153   6.328  36.900  1.00  0.00     0.703 A 
ATOM    853  N1    G A  39     -11.399   5.566  38.013  1.00  0.00    -0.153 N 
ATOM    854  N2    G A  39     -10.770   5.667  35.805  1.00  0.00    -0.233 N 
ATOM    855  C6    G A  39     -11.804   6.062  39.247  1.00  0.00     0.292 A 
ATOM    856  H1    G A  39     -11.278   4.568  37.930  1.00  0.00     0.187 HD
ATOM    857  O6    G A  39     -12.000   5.283  40.187  1.00  0.00    -0.265 OA
ATOM    858  H22   G A  39     -10.683   4.660  35.819  1.00  0.00     0.174 HD
ATOM    859  H21   G A  39     -10.576   6.182  34.959  1.00  0.00     0.174 HD
ATOM    860  N7    G A  39     -12.316   8.361  40.223  1.00  0.00    -0.234 NA
ATOM    861  C1'   T A  38      -9.698  12.005  42.016  1.00  0.00     0.264 C 
ATOM    862  O2'   T A  38     -10.279  13.845  40.600  1.00  0.00    -0.388 OA
ATOM    863  N1    T A  38      -9.826  10.544  42.107  1.00  0.00    -0.280 N 
ATOM    864  C6    T A  38     -10.521   9.947  43.135  1.00  0.00     0.104 A 
ATOM    865  C2    T A  38      -9.223   9.783  41.121  1.00  0.00     0.331 A 
ATOM    866  C5    T A  38     -10.646   8.620  43.239  1.00  0.00     0.092 A 
ATOM    867  C4    T A  38     -10.050   7.767  42.260  1.00  0.00     0.250 A 
ATOM    868  N3    T A  38      -9.376   8.428  41.259  1.00  0.00    -0.275 N 
ATOM    869  O4    T A  38     -10.080   6.536  42.256  1.00  0.00    -0.268 OA
ATOM    870  H3    T A  38      -8.961   7.854  40.541  1.00  0.00     0.173 HD
ATOM    871  O2    T A  38      -8.597  10.270  40.197  1.00  0.00    -0.246 OA
ATOM    872 'HO2   T A  38     -10.820  14.573  40.909  1.00  0.00     0.210 HD
ATOM    873  O2'   G A  37      -9.019  12.478  46.665  1.00  0.00    -0.388 OA
ATOM    874  C1'   G A  37      -8.173  10.243  46.798  1.00  0.00     0.262 C 
ATOM    875 'HO2   G A  37      -9.759  12.821  47.166  1.00  0.00     0.210 HD
ATOM    876  N9    G A  37      -8.088   8.976  46.077  1.00  0.00    -0.293 N 
ATOM    877  C8    G A  37      -8.647   7.778  46.443  1.00  0.00     0.214 A 
ATOM    878  C4    G A  37      -7.424   8.748  44.895  1.00  0.00     0.187 A 
ATOM    879  N7    G A  37      -8.389   6.810  45.605  1.00  0.00    -0.234 NA
ATOM    880  C5    G A  37      -7.616   7.410  44.620  1.00  0.00     0.173 A 
ATOM    881  C6    G A  37      -7.037   6.865  43.444  1.00  0.00     0.292 A 
ATOM    882  O6    G A  37      -7.092   5.703  43.023  1.00  0.00    -0.265 OA
ATOM    883  N1    G A  37      -6.331   7.825  42.729  1.00  0.00    -0.153 N 
ATOM    884  C2    G A  37      -6.202   9.140  43.094  1.00  0.00     0.703 A 
ATOM    885  H1    G A  37      -5.880   7.529  41.878  1.00  0.00     0.187 HD
ATOM    886  N3    G A  37      -6.736   9.663  44.183  1.00  0.00    -0.044 NA
ATOM    887  N2    G A  37      -5.483   9.911  42.274  1.00  0.00    -0.233 N 
ATOM    888  H21   G A  37      -5.356  10.887  42.496  1.00  0.00     0.174 HD
ATOM    889  H22   G A  37      -5.069   9.520  41.438  1.00  0.00     0.174 HD
ATOM    890  O2'   C A  36      -8.536   6.806  50.728  1.00  0.00    -0.388 OA
ATOM    891  C1'   C A  36      -8.011   4.650  49.829  1.00  0.00     0.264 C 
ATOM    892 'HO2   C A  36      -9.368   7.170  51.030  1.00  0.00     0.210 HD
ATOM    893  N1    C A  36      -7.673   4.003  48.549  1.00  0.00    -0.278 N 
ATOM    894  C6    C A  36      -8.274   2.835  48.166  1.00  0.00     0.102 A 
ATOM    895  C2    C A  36      -6.723   4.607  47.724  1.00  0.00     0.352 A 
ATOM    896  C5    C A  36      -7.967   2.250  47.000  1.00  0.00     0.067 A 
ATOM    897  C4    C A  36      -6.996   2.894  46.179  1.00  0.00     0.128 A 
ATOM    898  N4    C A  36      -6.649   2.363  45.006  1.00  0.00    -0.384 N 
ATOM    899  N3    C A  36      -6.407   4.032  46.543  1.00  0.00    -0.177 NA
ATOM    900  H41   C A  36      -7.071   1.502  44.690  1.00  0.00     0.157 HD
ATOM    901  H42   C A  36      -5.957   2.828  44.435  1.00  0.00     0.157 HD
ATOM    902  O2    C A  36      -6.190   5.660  48.097  1.00  0.00    -0.244 OA
ATOM    903  C1'   G A  35      -9.314  -1.438  50.340  1.00  0.00     0.262 C 
ATOM    904  O2'   G A  35     -10.794  -0.556  52.008  1.00  0.00    -0.388 OA
ATOM    905  N9    G A  35      -8.205  -1.076  49.462  1.00  0.00    -0.293 N 
ATOM    906  C4    G A  35      -7.316  -0.046  49.651  1.00  0.00     0.187 A 
ATOM    907  C8    G A  35      -7.844  -1.686  48.285  1.00  0.00     0.214 A 
ATOM    908  C5    G A  35      -6.466  -0.092  48.566  1.00  0.00     0.173 A 
ATOM    909  N3    G A  35      -7.308   0.813  50.691  1.00  0.00    -0.044 NA
ATOM    910  N7    G A  35      -6.811  -1.132  47.713  1.00  0.00    -0.234 NA
ATOM    911  C6    G A  35      -5.422   0.867  48.476  1.00  0.00     0.292 A 
ATOM    912  N1    G A  35      -5.435   1.739  49.558  1.00  0.00    -0.153 N 
ATOM    913  O6    G A  35      -4.567   0.997  47.593  1.00  0.00    -0.265 OA
ATOM    914  C2    G A  35      -6.333   1.698  50.593  1.00  0.00     0.703 A 
ATOM    915  H1    G A  35      -4.726   2.454  49.580  1.00  0.00     0.187 HD
ATOM    916  N2    G A  35      -6.182   2.625  51.541  1.00  0.00    -0.233 N 
ATOM    917  H21   G A  35      -6.823   2.633  52.322  1.00  0.00     0.174 HD
ATOM    918  H22   G A  35      -5.445   3.309  51.482  1.00  0.00     0.174 HD
ATOM    919 'HO2   G A  35     -11.695  -0.244  51.923  1.00  0.00     0.210 HD
ATOM    920  C1'   C A  33      -5.075  -4.942  41.504  1.00  0.00     0.264 C 
ATOM    921  O2'   C A  33      -7.307  -4.347  40.885  1.00  0.00    -0.388 OA
ATOM    922  N1    C A  33      -4.341  -5.397  42.696  1.00  0.00    -0.278 N 
ATOM    923  C2    C A  33      -4.870  -6.446  43.454  1.00  0.00     0.352 A 
ATOM    924  C6    C A  33      -3.163  -4.809  43.064  1.00  0.00     0.102 A 
ATOM    925  O2    C A  33      -5.938  -6.966  43.099  1.00  0.00    -0.244 OA
ATOM    926  N3    C A  33      -4.208  -6.870  44.552  1.00  0.00    -0.177 NA
ATOM    927  C4    C A  33      -3.059  -6.290  44.902  1.00  0.00     0.128 A 
ATOM    928  C5    C A  33      -2.493  -5.221  44.148  1.00  0.00     0.067 A 
ATOM    929 'HO2   C A  33      -7.434  -3.551  40.370  1.00  0.00     0.210 HD
BRANCH 847 930
ATOM    930  O2'   G A  39     -12.480  11.194  35.209  1.00  0.00    -0.388 OA
ATOM    931 'HO2   G A  39     -11.736  10.632  34.994  1.00  0.00     0.210 HD
ENDBRANCH 847 930
BRANCH 844 932
ATOM    932  O3'   G A  39     -14.535  12.636  36.301  1.00  0.00    -0.279 OA
BRANCH 932 933
ATOM    933  P     G A  40     -14.054  14.058  35.724  1.00  0.00     0.408 P 
ATOM    934  OP2   G A  40     -14.684  14.262  34.395  1.00  0.00    -0.624 OA
ATOM    935  OP1   G A  40     -14.265  15.064  36.797  1.00  0.00    -0.624 OA
BRANCH 933 936
ATOM    936  O5'   G A  40     -12.485  13.879  35.512  1.00  0.00    -0.287 OA
BRANCH 936 937
ATOM    937  C5'   G A  40     -11.805  14.553  34.455  1.00  0.00     0.216 C 
BRANCH 937 938
ATOM    938  C4'   G A  40     -11.608  13.620  33.282  1.00  0.00     0.180 C 
ATOM    939  C3'   G A  40     -10.175  13.172  33.032  1.00  0.00     0.198 C 
ATOM    940  C2'   G A  40     -10.197  12.839  31.545  1.00  0.00     0.199 C 
ATOM    941  C1'   G A  40     -11.096  13.955  31.013  1.00  0.00     0.262 C 
ATOM    942  O2'   G A  40     -10.829  11.592  31.314  1.00  0.00    -0.388 OA
ATOM    943  N9    G A  40     -10.364  15.150  30.606  1.00  0.00    -0.293 N 
ATOM    944  O4'   G A  40     -11.988  14.309  32.057  1.00  0.00    -0.353 OA
ATOM    945  C8    G A  40     -10.089  16.254  31.375  1.00  0.00     0.214 A 
ATOM    946  C4    G A  40      -9.809  15.391  29.372  1.00  0.00     0.187 A 
ATOM    947  N7    G A  40      -9.410  17.169  30.739  1.00  0.00    -0.234 NA
ATOM    948  C5    G A  40      -9.224  16.636  29.471  1.00  0.00     0.173 A 
ATOM    949  C6    G A  40      -8.557  17.170  28.337  1.00  0.00     0.292 A 
ATOM    950  N1    G A  40      -8.607  16.297  27.257  1.00  0.00    -0.153 N 
ATOM    951  O6    G A  40      -7.977  18.255  28.221  1.00  0.00    -0.265 OA
ATOM    952  C2    G A  40      -9.217  15.069  27.264  1.00  0.00     0.703 A 
ATOM    953  H1    G A  40      -8.158  16.596  26.407  1.00  0.00     0.187 HD
ATOM    954  N2    G A  40      -9.150  14.372  26.127  1.00  0.00    -0.233 N 
ATOM    955  N3    G A  40      -9.845  14.560  28.309  1.00  0.00    -0.044 NA
ATOM    956  H21   G A  40      -9.582  13.462  26.085  1.00  0.00     0.174 HD
ATOM    957  H22   G A  40      -8.674  14.746  25.319  1.00  0.00     0.174 HD
ATOM    958 'HO2   G A  40     -10.671  11.060  32.094  1.00  0.00     0.210 HD
BRANCH 939 959
ATOM    959  O3'   G A  40      -9.823  12.050  33.837  1.00  0.00    -0.279 OA
BRANCH 959 960
ATOM    960  P     A A  41      -8.550  12.141  34.816  1.00  0.00     0.408 P 
ATOM    961  OP2   A A  41      -8.996  12.704  36.116  1.00  0.00    -0.624 OA
ATOM    962  OP1   A A  41      -7.876  10.818  34.783  1.00  0.00    -0.624 OA
BRANCH 960 963
ATOM    963  O5'   A A  41      -7.596  13.203  34.107  1.00  0.00    -0.287 OA
BRANCH 963 964
ATOM    964  C5'   A A  41      -7.891  14.599  34.143  1.00  0.00     0.216 C 
BRANCH 964 965
ATOM    965  C4'   A A  41      -6.799  15.346  34.874  1.00  0.00     0.180 C 
ATOM    966  O4'   A A  41      -6.349  16.446  34.037  1.00  0.00    -0.353 OA
ATOM    967  C1'   A A  41      -6.142  17.600  34.831  1.00  0.00     0.262 C 
ATOM    968  C2'   A A  41      -6.274  17.185  36.296  1.00  0.00     0.199 C 
ATOM    969  N9    A A  41      -7.104  18.621  34.414  1.00  0.00    -0.294 N 
ATOM    970  O2'   A A  41      -5.001  16.787  36.770  1.00  0.00    -0.388 OA
ATOM    971  C3'   A A  41      -7.218  15.992  36.188  1.00  0.00     0.198 C 
ATOM    972 'HO2   A A  41      -5.152  16.081  37.398  1.00  0.00     0.210 HD
ATOM    973  O3'   A A  41      -7.069  15.088  37.282  1.00  0.00    -0.279 OA
ATOM    974  P     A A  42      -8.179  15.047  38.445  1.00  0.00     0.408 P 
ATOM    975  OP1   A A  42      -7.795  13.960  39.384  1.00  0.00    -0.624 OA
ATOM    976  O5'   A A  42      -8.001  16.438  39.204  1.00  0.00    -0.287 OA
ATOM    977  OP2   A A  42      -9.522  15.028  37.815  1.00  0.00    -0.624 OA
ATOM    978  C5'   A A  42      -6.888  16.668  40.068  1.00  0.00     0.216 C 
ATOM    979  C4'   A A  42      -6.661  18.152  40.247  1.00  0.00     0.180 C 
ATOM    980  C3'   A A  42      -7.768  18.903  40.978  1.00  0.00     0.198 C 
ATOM    981  O4'   A A  42      -6.585  18.777  38.936  1.00  0.00    -0.353 OA
ATOM    982  O3'   A A  42      -7.570  18.883  42.391  1.00  0.00    -0.279 OA
ATOM    983  C2'   A A  42      -7.654  20.307  40.398  1.00  0.00     0.199 C 
ATOM    984  P     T A  43      -8.820  19.109  43.378  1.00  0.00     0.408 P 
ATOM    985  OP1   T A  43      -8.299  19.075  44.768  1.00  0.00    -0.624 OA
ATOM    986  O5'   T A  43      -9.302  20.595  43.062  1.00  0.00    -0.287 OA
ATOM    987  OP2   T A  43      -9.905  18.177  42.979  1.00  0.00    -0.624 OA
ATOM    988  C5'   T A  43      -8.458  21.715  43.327  1.00  0.00     0.216 C 
ATOM    989  C4'   T A  43      -9.113  22.989  42.844  1.00  0.00     0.180 C 
ATOM    990  C3'   T A  43     -10.530  23.226  43.350  1.00  0.00     0.198 C 
ATOM    991  O4'   T A  43      -9.239  22.932  41.397  1.00  0.00    -0.353 OA
ATOM    992  O3'   T A  43     -10.523  23.897  44.608  1.00  0.00    -0.279 OA
ATOM    993  C2'   T A  43     -11.145  24.074  42.242  1.00  0.00     0.199 C 
ATOM    994  P     C A  44     -11.647  23.553  45.705  1.00  0.00     0.408 P 
ATOM    995  OP2   C A  44     -11.802  22.076  45.766  1.00  0.00    -0.624 OA
ATOM    996  OP1   C A  44     -11.298  24.304  46.938  1.00  0.00    -0.624 OA
ATOM    997  O5'   C A  44     -12.981  24.184  45.102  1.00  0.00    -0.287 OA
ATOM    998  C5'   C A  44     -14.212  23.462  45.110  1.00  0.00     0.216 C 
ATOM    999  C4'   C A  44     -14.767  23.363  43.709  1.00  0.00     0.180 C 
ATOM   1000  C3'   C A  44     -16.108  22.654  43.592  1.00  0.00     0.198 C 
ATOM   1001  O4'   C A  44     -13.856  22.570  42.896  1.00  0.00    -0.353 OA
ATOM   1002  O3'   C A  44     -17.193  23.555  43.793  1.00  0.00    -0.279 OA
ATOM   1003  C2'   C A  44     -16.065  22.099  42.175  1.00  0.00     0.199 C 
ATOM   1004  P     A A  45     -18.574  23.021  44.422  1.00  0.00     0.408 P 
ATOM   1005  OP1   A A  45     -19.376  24.213  44.798  1.00  0.00    -0.624 OA
ATOM   1006  OP2   A A  45     -18.269  21.988  45.444  1.00  0.00    -0.624 OA
ATOM   1007  O5'   A A  45     -19.303  22.307  43.197  1.00  0.00    -0.287 OA
ATOM   1008  C5'   A A  45     -19.665  23.040  42.028  1.00  0.00     0.216 C 
ATOM   1009  C4'   A A  45     -20.544  22.199  41.132  1.00  0.00     0.180 C 
ATOM   1010  O4'   A A  45     -19.699  21.298  40.360  1.00  0.00    -0.353 OA
ATOM   1011  C3'   A A  45     -21.535  21.289  41.850  1.00  0.00     0.198 C 
ATOM   1012  C1'   A A  45     -20.263  19.999  40.355  1.00  0.00     0.262 C 
ATOM   1013  N9    A A  45     -19.424  19.131  41.180  1.00  0.00    -0.294 N 
ATOM   1014  C2'   A A  45     -21.695  20.140  40.864  1.00  0.00     0.199 C 
ATOM   1015  C4    A A  45     -19.276  17.771  41.049  1.00  0.00     0.167 A 
ATOM   1016  C8    A A  45     -18.625  19.495  42.235  1.00  0.00     0.214 A 
ATOM   1017  C5    A A  45     -18.388  17.391  42.038  1.00  0.00     0.149 A 
ATOM   1018  N3    A A  45     -19.868  16.968  40.148  1.00  0.00    -0.222 NA
ATOM   1019  C6    A A  45     -18.062  16.025  42.114  1.00  0.00     0.155 A 
ATOM   1020  N7    A A  45     -17.983  18.491  42.783  1.00  0.00    -0.236 NA
ATOM   1021  N6    A A  45     -17.218  15.515  43.010  1.00  0.00    -0.382 N 
ATOM   1022  N1    A A  45     -18.640  15.191  41.224  1.00  0.00    -0.222 NA
ATOM   1023  H62   A A  45     -17.012  14.525  43.005  1.00  0.00     0.157 HD
ATOM   1024  H61   A A  45     -16.773  16.120  43.684  1.00  0.00     0.157 HD
ATOM   1025  C2    A A  45     -19.485  15.704  40.320  1.00  0.00     0.237 A 
ATOM   1026  O2'   A A  45     -22.529  20.507  39.781  1.00  0.00    -0.388 OA
ATOM   1027 'HO2   A A  45     -23.038  21.266  40.068  1.00  0.00     0.210 HD
ATOM   1028  O3'   A A  45     -22.766  21.955  42.116  1.00  0.00    -0.279 OA
ATOM   1029  P     C A  46     -23.662  21.505  43.374  1.00  0.00     0.408 P 
ATOM   1030  OP2   C A  46     -22.768  21.314  44.544  1.00  0.00    -0.624 OA
ATOM   1031  O5'   C A  46     -24.234  20.080  42.951  1.00  0.00    -0.287 OA
ATOM   1032  OP1   C A  46     -24.802  22.452  43.469  1.00  0.00    -0.624 OA
ATOM   1033  C5'   C A  46     -25.088  19.937  41.818  1.00  0.00     0.216 C 
ATOM   1034  C4'   C A  46     -25.228  18.479  41.449  1.00  0.00     0.180 C 
ATOM   1035  O4'   C A  46     -23.917  17.947  41.118  1.00  0.00    -0.353 OA
ATOM   1036  C3'   C A  46     -25.738  17.571  42.560  1.00  0.00     0.198 C 
ATOM   1037  C1'   C A  46     -23.796  16.625  41.614  1.00  0.00     0.264 C 
ATOM   1038  C2'   C A  46     -25.161  16.216  42.168  1.00  0.00     0.199 C 
ATOM   1039  N1    C A  46     -22.714  16.603  42.613  1.00  0.00    -0.278 N 
ATOM   1040  O2'   C A  46     -25.912  15.622  41.127  1.00  0.00    -0.388 OA
ATOM   1041 'HO2   C A  46     -26.749  16.087  41.091  1.00  0.00     0.210 HD
ATOM   1042  C2    C A  46     -22.029  15.407  42.840  1.00  0.00     0.352 A 
ATOM   1043  C6    C A  46     -22.377  17.732  43.307  1.00  0.00     0.102 A 
ATOM   1044  N3    C A  46     -21.031  15.378  43.751  1.00  0.00    -0.177 NA
ATOM   1045  O2    C A  46     -22.354  14.396  42.200  1.00  0.00    -0.244 OA
ATOM   1046  C4    C A  46     -20.706  16.487  44.419  1.00  0.00     0.128 A 
ATOM   1047  N4    C A  46     -19.713  16.412  45.303  1.00  0.00    -0.384 N 
ATOM   1048  C5    C A  46     -21.386  17.721  44.207  1.00  0.00     0.067 A 
ATOM   1049  H42   C A  46     -19.243  15.531  45.451  1.00  0.00     0.157 HD
ATOM   1050  H41   C A  46     -19.437  17.228  45.829  1.00  0.00     0.157 HD
ATOM   1051  O3'   C A  46     -27.162  17.561  42.614  1.00  0.00    -0.279 OA
ATOM   1052  P     G A  47     -27.908  17.129  43.971  1.00  0.00     0.408 P 
ATOM   1053  OP1   G A  47     -29.361  17.059  43.670  1.00  0.00    -0.624 OA
ATOM   1054  O5'   G A  47     -27.384  15.649  44.246  1.00  0.00    -0.287 OA
ATOM   1055  OP2   G A  47     -27.428  18.005  45.070  1.00  0.00    -0.624 OA
ATOM   1056  C5'   G A  47     -27.781  14.560  43.414  1.00  0.00     0.216 C 
ATOM   1057  C4'   G A  47     -27.330  13.250  44.020  1.00  0.00     0.180 C 
ATOM   1058  C3'   G A  47     -27.506  13.127  45.528  1.00  0.00     0.198 C 
ATOM   1059  O4'   G A  47     -25.903  13.107  43.814  1.00  0.00    -0.353 OA
ATOM   1060  C2'   G A  47     -26.449  12.093  45.904  1.00  0.00     0.199 C 
ATOM   1061  O3'   G A  47     -28.822  12.700  45.870  1.00  0.00    -0.279 OA
ATOM   1062  C1'   G A  47     -25.332  12.415  44.911  1.00  0.00     0.262 C 
ATOM   1063  O2'   G A  47     -26.911  10.779  45.655  1.00  0.00    -0.388 OA
ATOM   1064  N9    G A  47     -24.266  13.242  45.471  1.00  0.00    -0.293 N 
ATOM   1065  C8    G A  47     -24.188  14.613  45.470  1.00  0.00     0.214 A 
ATOM   1066  C4    G A  47     -23.136  12.790  46.106  1.00  0.00     0.187 A 
ATOM   1067  N7    G A  47     -23.106  15.067  46.042  1.00  0.00    -0.234 NA
ATOM   1068  C5    G A  47     -22.431  13.924  46.450  1.00  0.00     0.173 A 
ATOM   1069  C6    G A  47     -21.191  13.777  47.131  1.00  0.00     0.292 A 
ATOM   1070  O6    G A  47     -20.416  14.657  47.523  1.00  0.00    -0.265 OA
ATOM   1071  N1    G A  47     -20.883  12.438  47.347  1.00  0.00    -0.153 N 
ATOM   1072  C2    G A  47     -21.664  11.378  46.959  1.00  0.00     0.703 A 
ATOM   1073  H1    G A  47     -20.017  12.237  47.824  1.00  0.00     0.187 HD
ATOM   1074  N2    G A  47     -21.201  10.162  47.255  1.00  0.00    -0.233 N 
ATOM   1075  N3    G A  47     -22.816  11.499  46.328  1.00  0.00    -0.044 NA
ATOM   1076  H21   G A  47     -21.741   9.352  46.990  1.00  0.00     0.174 HD
ATOM   1077  H22   G A  47     -20.320  10.049  47.737  1.00  0.00     0.174 HD
ATOM   1078 'HO2   G A  47     -27.866  10.810  45.729  1.00  0.00     0.210 HD
ATOM   1079  C1'   C A  44     -14.596  21.689  42.068  1.00  0.00     0.264 C 
ATOM   1080  O2'   C A  44     -16.324  23.113  41.223  1.00  0.00    -0.388 OA
ATOM   1081  N1    C A  44     -14.328  20.307  42.503  1.00  0.00    -0.278 N 
ATOM   1082  C6    C A  44     -13.637  20.057  43.655  1.00  0.00     0.102 A 
ATOM   1083  C2    C A  44     -14.791  19.248  41.714  1.00  0.00     0.352 A 
ATOM   1084  C5    C A  44     -13.388  18.804  44.055  1.00  0.00     0.067 A 
ATOM   1085  C4    C A  44     -13.869  17.744  43.231  1.00  0.00     0.128 A 
ATOM   1086  N4    C A  44     -13.654  16.475  43.577  1.00  0.00    -0.384 N 
ATOM   1087  N3    C A  44     -14.544  17.977  42.105  1.00  0.00    -0.177 NA
ATOM   1088  H41   C A  44     -13.148  16.261  44.424  1.00  0.00     0.157 HD
ATOM   1089  H42   C A  44     -14.000  15.728  42.992  1.00  0.00     0.157 HD
ATOM   1090  O2    C A  44     -15.418  19.499  40.676  1.00  0.00    -0.244 OA
ATOM   1091 'HO2   C A  44     -16.822  23.795  41.677  1.00  0.00     0.210 HD
ATOM   1092  C1'   T A  43     -10.488  23.468  41.001  1.00  0.00     0.264 C 
ATOM   1093  O2'   T A  43     -10.744  25.427  42.353  1.00  0.00    -0.388 OA
ATOM   1094  N1    T A  43     -11.274  22.394  40.377  1.00  0.00    -0.280 N 
ATOM   1095  C2    T A  43     -12.026  22.708  39.261  1.00  0.00     0.331 A 
ATOM   1096  C6    T A  43     -11.260  21.116  40.886  1.00  0.00     0.104 A 
ATOM   1097  N3    T A  43     -12.733  21.662  38.725  1.00  0.00    -0.275 N 
ATOM   1098  O2    T A  43     -12.066  23.826  38.780  1.00  0.00    -0.246 OA
ATOM   1099  H3    T A  43     -13.294  21.867  37.914  1.00  0.00     0.173 HD
ATOM   1100  C4    T A  43     -12.764  20.364  39.180  1.00  0.00     0.250 A 
ATOM   1101  O4    T A  43     -13.445  19.531  38.585  1.00  0.00    -0.268 OA
ATOM   1102  C5    T A  43     -11.963  20.121  40.337  1.00  0.00     0.092 A 
ATOM   1103 'HO2   T A  43     -10.267  25.506  43.180  1.00  0.00     0.210 HD
ATOM   1104  C1'   A A  42      -7.309  19.996  38.943  1.00  0.00     0.262 C 
ATOM   1105  O2'   A A  42      -6.574  21.015  40.978  1.00  0.00    -0.388 OA
ATOM   1106  N9    A A  42      -8.479  19.839  38.080  1.00  0.00    -0.294 N 
ATOM   1107  C8    A A  42      -9.082  18.669  37.692  1.00  0.00     0.214 A 
ATOM   1108  C4    A A  42      -9.202  20.847  37.490  1.00  0.00     0.167 A 
ATOM   1109  N7    A A  42     -10.118  18.843  36.911  1.00  0.00    -0.236 NA
ATOM   1110  C5    A A  42     -10.206  20.221  36.775  1.00  0.00     0.149 A 
ATOM   1111  C6    A A  42     -11.095  21.046  36.067  1.00  0.00     0.155 A 
ATOM   1112  N6    A A  42     -12.107  20.584  35.333  1.00  0.00    -0.382 N 
ATOM   1113  N1    A A  42     -10.908  22.381  36.141  1.00  0.00    -0.222 NA
ATOM   1114  H61   A A  42     -12.257  19.585  35.269  1.00  0.00     0.157 HD
ATOM   1115  H62   A A  42     -12.715  21.224  34.845  1.00  0.00     0.157 HD
ATOM   1116  C2    A A  42      -9.889  22.845  36.877  1.00  0.00     0.237 A 
ATOM   1117  N3    A A  42      -8.985  22.170  37.584  1.00  0.00    -0.222 NA
ATOM   1118 'HO2   A A  42      -6.285  20.509  41.737  1.00  0.00     0.210 HD
ATOM   1119  C4    A A  41      -7.032  19.966  34.686  1.00  0.00     0.167 A 
ATOM   1120  C8    A A  41      -8.248  18.448  33.676  1.00  0.00     0.214 A 
ATOM   1121  N3    A A  41      -6.081  20.607  35.386  1.00  0.00    -0.222 NA
ATOM   1122  C5    A A  41      -8.144  20.530  34.087  1.00  0.00     0.149 A 
ATOM   1123  C2    A A  41      -6.339  21.911  35.443  1.00  0.00     0.237 A 
ATOM   1124  N1    A A  41      -7.363  22.596  34.917  1.00  0.00    -0.222 NA
ATOM   1125  C6    A A  41      -8.300  21.921  34.219  1.00  0.00     0.155 A 
ATOM   1126  N6    A A  41      -9.318  22.605  33.695  1.00  0.00    -0.382 N 
ATOM   1127  H61   A A  41     -10.030  22.120  33.168  1.00  0.00     0.157 HD
ATOM   1128  H62   A A  41      -9.372  23.604  33.827  1.00  0.00     0.157 HD
ATOM   1129  N7    A A  41      -8.905  19.560  33.452  1.00  0.00    -0.236 NA
BRANCH 1061 1130
ATOM   1130  P     T A  48     -29.658  13.489  46.997  1.00  0.00     0.408 P 
ATOM   1131  OP1   T A  48     -30.506  12.481  47.681  1.00  0.00    -0.624 OA
ATOM   1132  OP2   T A  48     -30.293  14.691  46.394  1.00  0.00    -0.624 OA
BRANCH 1130 1133
ATOM   1133  O5'   T A  48     -28.550  13.971  48.037  1.00  0.00    -0.287 OA
BRANCH 1133 1134
ATOM   1134  C5'   T A  48     -28.521  13.472  49.374  1.00  0.00     0.216 C 
BRANCH 1134 1135
ATOM   1135  C4'   T A  48     -28.463  14.619  50.354  1.00  0.00     0.180 C 
ATOM   1136  O4'   T A  48     -29.098  15.778  49.748  1.00  0.00    -0.353 OA
ATOM   1137  C1'   T A  48     -29.858  16.472  50.721  1.00  0.00     0.264 C 
ATOM   1138  N1    T A  48     -31.275  16.407  50.334  1.00  0.00    -0.280 N 
ATOM   1139  C2'   T A  48     -29.558  15.834  52.078  1.00  0.00     0.199 C 
ATOM   1140  C2    T A  48     -32.116  17.405  50.793  1.00  0.00     0.331 A 
ATOM   1141  C6    T A  48     -31.755  15.387  49.541  1.00  0.00     0.104 A 
ATOM   1142  O2    T A  48     -31.732  18.326  51.490  1.00  0.00    -0.246 OA
ATOM   1143  N3    T A  48     -33.425  17.285  50.406  1.00  0.00    -0.275 N 
ATOM   1144  H3    T A  48     -34.056  18.004  50.727  1.00  0.00     0.173 HD
ATOM   1145  C4    T A  48     -33.971  16.294  49.624  1.00  0.00     0.250 A 
ATOM   1146  O4    T A  48     -35.177  16.314  49.379  1.00  0.00    -0.268 OA
ATOM   1147  C5    T A  48     -33.040  15.304  49.184  1.00  0.00     0.092 A 
ATOM   1148  O2'   T A  48     -28.438  16.485  52.647  1.00  0.00    -0.388 OA
ATOM   1149  C3'   T A  48     -29.214  14.408  51.664  1.00  0.00     0.198 C 
ATOM   1150 'HO2   T A  48     -28.126  15.923  53.357  1.00  0.00     0.210 HD
BRANCH 1149 1151
ATOM   1151  O3'   T A  48     -28.408  13.744  52.635  1.00  0.00    -0.279 OA
BRANCH 1151 1152
ATOM   1152  P     C A  49     -26.876  14.193  52.851  1.00  0.00     0.408 P 
ATOM   1153  OP1   C A  49     -26.817  14.987  54.105  1.00  0.00    -0.624 OA
ATOM   1154  OP2   C A  49     -26.365  14.782  51.586  1.00  0.00    -0.624 OA
BRANCH 1152 1155
ATOM   1155  O5'   C A  49     -26.100  12.823  53.102  1.00  0.00    -0.287 OA
BRANCH 1155 1156
ATOM   1156  C5'   C A  49     -25.432  12.568  54.338  1.00  0.00     0.216 C 
BRANCH 1156 1157
ATOM   1157  C4'   C A  49     -24.957  11.134  54.386  1.00  0.00     0.180 C 
ATOM   1158  C3'   C A  49     -24.258  10.626  53.131  1.00  0.00     0.198 C 
ATOM   1159  C2'   C A  49     -24.501   9.124  53.214  1.00  0.00     0.199 C 
ATOM   1160  O2'   C A  49     -23.643   8.514  54.160  1.00  0.00    -0.388 OA
ATOM   1161  C1'   C A  49     -25.930   9.094  53.755  1.00  0.00     0.264 C 
ATOM   1162 'HO2   C A  49     -22.768   8.880  54.016  1.00  0.00     0.210 HD
ATOM   1163  N1    C A  49     -26.954   9.065  52.697  1.00  0.00    -0.278 N 
ATOM   1164  O4'   C A  49     -26.113  10.264  54.531  1.00  0.00    -0.353 OA
ATOM   1165  C2    C A  49     -27.512   7.838  52.341  1.00  0.00     0.352 A 
ATOM   1166  C6    C A  49     -27.347  10.211  52.063  1.00  0.00     0.102 A 
ATOM   1167  O2    C A  49     -27.146   6.821  52.942  1.00  0.00    -0.244 OA
ATOM   1168  N3    C A  49     -28.434   7.790  51.353  1.00  0.00    -0.177 NA
ATOM   1169  C4    C A  49     -28.804   8.912  50.734  1.00  0.00     0.128 A 
ATOM   1170  C5    C A  49     -28.260  10.181  51.083  1.00  0.00     0.067 A 
ATOM   1171  N4    C A  49     -29.711   8.815  49.761  1.00  0.00    -0.384 N 
ATOM   1172  H42   C A  49     -30.089   7.910  49.514  1.00  0.00     0.157 HD
ATOM   1173  H41   C A  49     -30.019   9.638  49.263  1.00  0.00     0.157 HD
BRANCH 1158 1174
ATOM   1174  O3'   C A  49     -22.869  10.953  53.120  1.00  0.00    -0.279 OA
ATOM   1175  P     G A  50     -22.322  12.102  52.132  1.00  0.00     0.408 P 
ATOM   1176  O5'   G A  50     -21.400  11.319  51.093  1.00  0.00    -0.287 OA
ATOM   1177  OP1   G A  50     -21.455  12.996  52.940  1.00  0.00    -0.624 OA
ATOM   1178  OP2   G A  50     -23.471  12.677  51.385  1.00  0.00    -0.624 OA
ATOM   1179  C5'   G A  50     -20.118  10.818  51.472  1.00  0.00     0.216 C 
ATOM   1180  C4'   G A  50     -20.008   9.349  51.125  1.00  0.00     0.180 C 
ATOM   1181  C3'   G A  50     -19.658   9.037  49.676  1.00  0.00     0.198 C 
ATOM   1182  O4'   G A  50     -21.301   8.717  51.324  1.00  0.00    -0.353 OA
ATOM   1183  C2'   G A  50     -20.222   7.632  49.501  1.00  0.00     0.199 C 
ATOM   1184  O3'   G A  50     -18.252   9.087  49.448  1.00  0.00    -0.279 OA
ATOM   1185  C1'   G A  50     -21.495   7.713  50.343  1.00  0.00     0.262 C 
ATOM   1186  O2'   G A  50     -19.361   6.663  50.070  1.00  0.00    -0.388 OA
ATOM   1187  N9    G A  50     -22.681   8.050  49.560  1.00  0.00    -0.293 N 
ATOM   1188  C4    G A  50     -23.168   7.351  48.483  1.00  0.00     0.187 A 
ATOM   1189  C8    G A  50     -23.525   9.117  49.742  1.00  0.00     0.214 A 
ATOM   1190  N3    G A  50     -22.636   6.226  47.963  1.00  0.00    -0.044 NA
ATOM   1191  C5    G A  50     -24.287   8.044  48.073  1.00  0.00     0.173 A 
ATOM   1192  C2    G A  50     -23.326   5.789  46.926  1.00  0.00     0.703 A 
ATOM   1193  N2    G A  50     -22.930   4.688  46.282  1.00  0.00    -0.233 N 
ATOM   1194  N1    G A  50     -24.453   6.399  46.443  1.00  0.00    -0.153 N 
ATOM   1195  H21   G A  50     -22.102   4.201  46.594  1.00  0.00     0.174 HD
ATOM   1196  H22   G A  50     -23.446   4.354  45.481  1.00  0.00     0.174 HD
ATOM   1197  H1    G A  50     -24.903   5.973  45.649  1.00  0.00     0.187 HD
ATOM   1198  C6    G A  50     -25.021   7.557  46.960  1.00  0.00     0.292 A 
ATOM   1199  O6    G A  50     -26.044   8.026  46.442  1.00  0.00    -0.265 OA
ATOM   1200  N7    G A  50     -24.502   9.156  48.877  1.00  0.00    -0.234 NA
ATOM   1201 'HO2   G A  50     -18.469   7.004  49.982  1.00  0.00     0.210 HD
ATOM   1202  P     G A  51     -17.687   9.562  48.017  1.00  0.00     0.408 P 
ATOM   1203  O5'   G A  51     -18.317   8.526  46.982  1.00  0.00    -0.287 OA
ATOM   1204  OP2   G A  51     -18.233  10.912  47.722  1.00  0.00    -0.624 OA
ATOM   1205  OP1   G A  51     -16.216   9.356  48.038  1.00  0.00    -0.624 OA
ATOM   1206  C5'   G A  51     -18.079   7.124  47.110  1.00  0.00     0.216 C 
ATOM   1207  C4'   G A  51     -18.393   6.414  45.811  1.00  0.00     0.180 C 
ATOM   1208  O4'   G A  51     -19.771   5.955  45.823  1.00  0.00    -0.353 OA
ATOM   1209  C3'   G A  51     -18.330   7.251  44.545  1.00  0.00     0.198 C 
ATOM   1210  C1'   G A  51     -20.265   5.920  44.492  1.00  0.00     0.262 C 
ATOM   1211  N9    G A  51     -21.458   6.757  44.411  1.00  0.00    -0.293 N 
ATOM   1212  C2'   G A  51     -19.137   6.397  43.577  1.00  0.00     0.199 C 
ATOM   1213  C4    G A  51     -22.446   6.674  43.458  1.00  0.00     0.187 A 
ATOM   1214  C8    G A  51     -21.818   7.780  45.253  1.00  0.00     0.214 A 
ATOM   1215  N3    G A  51     -22.486   5.798  42.433  1.00  0.00    -0.044 NA
ATOM   1216  C5    G A  51     -23.351   7.662  43.783  1.00  0.00     0.173 A 
ATOM   1217  C2    G A  51     -23.559   5.965  41.683  1.00  0.00     0.703 A 
ATOM   1218  N2    G A  51     -23.754   5.181  40.621  1.00  0.00    -0.233 N 
ATOM   1219  N1    G A  51     -24.521   6.915  41.919  1.00  0.00    -0.153 N 
ATOM   1220  H22   G A  51     -24.568   5.300  40.036  1.00  0.00     0.174 HD
ATOM   1221  H21   G A  51     -23.073   4.466  40.406  1.00  0.00     0.174 HD
ATOM   1222  C6    G A  51     -24.501   7.827  42.967  1.00  0.00     0.292 A 
ATOM   1223  H1    G A  51     -25.303   6.957  41.283  1.00  0.00     0.187 HD
ATOM   1224  O6    G A  51     -25.421   8.643  43.087  1.00  0.00    -0.265 OA
ATOM   1225  N7    G A  51     -22.942   8.351  44.917  1.00  0.00    -0.234 NA
ATOM   1226  O2'   G A  51     -18.396   5.271  43.145  1.00  0.00    -0.388 OA
ATOM   1227 'HO2   G A  51     -17.481   5.548  43.092  1.00  0.00     0.210 HD
ATOM   1228  O3'   G A  51     -16.996   7.471  44.097  1.00  0.00    -0.279 OA
ATOM   1229  P     G A  52     -16.684   8.690  43.094  1.00  0.00     0.408 P 
ATOM   1230  O5'   G A  52     -17.526   8.340  41.787  1.00  0.00    -0.287 OA
ATOM   1231  OP2   G A  52     -17.236   9.935  43.686  1.00  0.00    -0.624 OA
ATOM   1232  OP1   G A  52     -15.241   8.619  42.750  1.00  0.00    -0.624 OA
ATOM   1233  C5'   G A  52     -17.093   7.319  40.889  1.00  0.00     0.216 C 
ATOM   1234  C4'   G A  52     -18.149   7.054  39.840  1.00  0.00     0.180 C 
ATOM   1235  O4'   G A  52     -19.443   6.870  40.472  1.00  0.00    -0.353 OA
ATOM   1236  C3'   G A  52     -18.417   8.181  38.854  1.00  0.00     0.198 C 
ATOM   1237  C1'   G A  52     -20.466   7.243  39.561  1.00  0.00     0.262 C 
ATOM   1238  C2'   G A  52     -19.786   7.799  38.306  1.00  0.00     0.199 C 
ATOM   1239  N9    G A  52     -21.345   8.208  40.213  1.00  0.00    -0.293 N 
ATOM   1240  O2'   G A  52     -19.684   6.758  37.352  1.00  0.00    -0.388 OA
ATOM   1241 'HO2   G A  52     -18.760   6.697  37.109  1.00  0.00     0.210 HD
ATOM   1242  C8    G A  52     -21.122   8.875  41.393  1.00  0.00     0.214 A 
ATOM   1243  C4    G A  52     -22.570   8.633  39.755  1.00  0.00     0.187 A 
ATOM   1244  N7    G A  52     -22.092   9.684  41.719  1.00  0.00    -0.234 NA
ATOM   1245  C5    G A  52     -23.016   9.542  40.691  1.00  0.00     0.173 A 
ATOM   1246  C6    G A  52     -24.275  10.168  40.491  1.00  0.00     0.292 A 
ATOM   1247  O6    G A  52     -24.848  10.999  41.204  1.00  0.00    -0.265 OA
ATOM   1248  N1    G A  52     -24.880   9.734  39.316  1.00  0.00    -0.153 N 
ATOM   1249  C2    G A  52     -24.346   8.818  38.448  1.00  0.00     0.703 A 
ATOM   1250  H1    G A  52     -25.780  10.126  39.089  1.00  0.00     0.187 HD
ATOM   1251  N2    G A  52     -25.080   8.531  37.369  1.00  0.00    -0.233 N 
ATOM   1252  N3    G A  52     -23.178   8.226  38.622  1.00  0.00    -0.044 NA
ATOM   1253  H21   G A  52     -24.732   7.863  36.698  1.00  0.00     0.174 HD
ATOM   1254  H22   G A  52     -25.974   8.981  37.224  1.00  0.00     0.174 HD
ATOM   1255  O3'   G A  52     -17.422   8.253  37.837  1.00  0.00    -0.279 OA
ATOM   1256  P     G A  53     -17.210   9.625  37.022  1.00  0.00     0.408 P 
ATOM   1257  OP2   G A  53     -17.145  10.746  37.993  1.00  0.00    -0.624 OA
ATOM   1258  OP1   G A  53     -16.085   9.406  36.077  1.00  0.00    -0.624 OA
ATOM   1259  O5'   G A  53     -18.548   9.780  36.170  1.00  0.00    -0.287 OA
ATOM   1260  C5'   G A  53     -18.908   8.808  35.189  1.00  0.00     0.216 C 
ATOM   1261  C4'   G A  53     -20.243   9.154  34.571  1.00  0.00     0.180 C 
ATOM   1262  C3'   G A  53     -20.379  10.565  34.022  1.00  0.00     0.198 C 
ATOM   1263  O4'   G A  53     -21.282   9.094  35.584  1.00  0.00    -0.353 OA
ATOM   1264  O3'   G A  53     -19.772  10.698  32.740  1.00  0.00    -0.279 OA
ATOM   1265  C2'   G A  53     -21.893  10.738  33.974  1.00  0.00     0.199 C 
ATOM   1266  P     T A  54     -19.351  12.155  32.204  1.00  0.00     0.408 P 
ATOM   1267  OP2   T A  54     -18.611  12.860  33.281  1.00  0.00    -0.624 OA
ATOM   1268  O5'   T A  54     -20.741  12.903  31.983  1.00  0.00    -0.287 OA
ATOM   1269  OP1   T A  54     -18.712  11.970  30.876  1.00  0.00    -0.624 OA
ATOM   1270  C5'   T A  54     -21.676  12.440  31.013  1.00  0.00     0.216 C 
ATOM   1271  C4'   T A  54     -22.915  13.304  31.024  1.00  0.00     0.180 C 
ATOM   1272  O4'   T A  54     -23.572  13.188  32.313  1.00  0.00    -0.353 OA
ATOM   1273  C3'   T A  54     -22.681  14.800  30.876  1.00  0.00     0.198 C 
ATOM   1274  C1'   T A  54     -24.215  14.412  32.628  1.00  0.00     0.264 C 
ATOM   1275  N1    T A  54     -23.709  14.885  33.925  1.00  0.00    -0.280 N 
ATOM   1276  C2'   T A  54     -23.953  15.385  31.478  1.00  0.00     0.199 C 
ATOM   1277  C6    T A  54     -22.498  14.459  34.423  1.00  0.00     0.104 A 
ATOM   1278  C2    T A  54     -24.494  15.778  34.631  1.00  0.00     0.331 A 
ATOM   1279  C5    T A  54     -22.021  14.878  35.600  1.00  0.00     0.092 A 
ATOM   1280  C4    T A  54     -22.774  15.805  36.386  1.00  0.00     0.250 A 
ATOM   1281  N3    T A  54     -23.971  16.188  35.829  1.00  0.00    -0.275 N 
ATOM   1282  O4    T A  54     -22.435  16.275  37.471  1.00  0.00    -0.268 OA
ATOM   1283  H3    T A  54     -24.528  16.844  36.356  1.00  0.00     0.173 HD
ATOM   1284  O2    T A  54     -25.570  16.179  34.227  1.00  0.00    -0.246 OA
ATOM   1285  O2'   T A  54     -25.032  15.308  30.566  1.00  0.00    -0.388 OA
ATOM   1286 'HO2   T A  54     -24.654  15.119  29.707  1.00  0.00     0.210 HD
ATOM   1287  O2'   G A  53     -22.447  10.069  32.856  1.00  0.00    -0.388 OA
ATOM   1288  C1'   G A  53     -22.319  10.000  35.244  1.00  0.00     0.262 C 
ATOM   1289 'HO2   G A  53     -21.714   9.837  32.284  1.00  0.00     0.210 HD
ATOM   1290  N9    G A  53     -22.552  10.888  36.379  1.00  0.00    -0.293 N 
ATOM   1291  C8    G A  53     -21.739  11.076  37.471  1.00  0.00     0.214 A 
ATOM   1292  C4    G A  53     -23.639  11.709  36.562  1.00  0.00     0.187 A 
ATOM   1293  N7    G A  53     -22.215  11.940  38.324  1.00  0.00    -0.234 NA
ATOM   1294  C5    G A  53     -23.416  12.350  37.762  1.00  0.00     0.173 A 
ATOM   1295  C6    G A  53     -24.384  13.280  38.229  1.00  0.00     0.292 A 
ATOM   1296  O6    G A  53     -24.371  13.952  39.267  1.00  0.00    -0.265 OA
ATOM   1297  N1    G A  53     -25.451  13.394  37.346  1.00  0.00    -0.153 N 
ATOM   1298  C2    G A  53     -25.576  12.705  36.168  1.00  0.00     0.703 A 
ATOM   1299  H1    G A  53     -26.190  14.035  37.594  1.00  0.00     0.187 HD
ATOM   1300  N3    G A  53     -24.687  11.836  35.721  1.00  0.00    -0.044 NA
ATOM   1301  N2    G A  53     -26.675  12.953  35.454  1.00  0.00    -0.233 N 
ATOM   1302  H22   G A  53     -27.363  13.617  35.785  1.00  0.00     0.174 HD
ATOM   1303  H21   G A  53     -26.817  12.472  34.578  1.00  0.00     0.174 HD
BRANCH 1273 1304
ATOM   1304  O3'   T A  54     -22.501  15.176  29.512  1.00  0.00    -0.279 OA
BRANCH 1304 1305
ATOM   1305  P     C A  55     -21.043  15.615  28.991  1.00  0.00     0.408 P 
ATOM   1306  OP2   C A  55     -20.464  14.491  28.212  1.00  0.00    -0.624 OA
ATOM   1307  OP1   C A  55     -21.185  16.951  28.358  1.00  0.00    -0.624 OA
BRANCH 1305 1308
ATOM   1308  O5'   C A  55     -20.189  15.785  30.326  1.00  0.00    -0.287 OA
BRANCH 1308 1309
ATOM   1309  C5'   C A  55     -18.765  15.867  30.282  1.00  0.00     0.216 C 
BRANCH 1309 1310
ATOM   1310  C4'   C A  55     -18.322  17.306  30.410  1.00  0.00     0.180 C 
ATOM   1311  O4'   C A  55     -19.315  18.042  31.173  1.00  0.00    -0.353 OA
ATOM   1312  C1'   C A  55     -18.673  19.013  31.980  1.00  0.00     0.264 C 
ATOM   1313  N1    C A  55     -18.999  18.735  33.389  1.00  0.00    -0.278 N 
ATOM   1314  C2'   C A  55     -17.175  18.960  31.674  1.00  0.00     0.199 C 
ATOM   1315  C2    C A  55     -19.062  19.802  34.289  1.00  0.00     0.352 A 
ATOM   1316  C6    C A  55     -19.234  17.458  33.816  1.00  0.00     0.102 A 
ATOM   1317  N3    C A  55     -19.360  19.558  35.584  1.00  0.00    -0.177 NA
ATOM   1318  O2    C A  55     -18.842  20.949  33.878  1.00  0.00    -0.244 OA
ATOM   1319  C4    C A  55     -19.593  18.309  35.990  1.00  0.00     0.128 A 
ATOM   1320  N4    C A  55     -19.885  18.118  37.275  1.00  0.00    -0.384 N 
ATOM   1321  C5    C A  55     -19.535  17.201  35.095  1.00  0.00     0.067 A 
ATOM   1322  H42   C A  55     -19.927  18.912  37.900  1.00  0.00     0.157 HD
ATOM   1323  H41   C A  55     -20.069  17.189  37.625  1.00  0.00     0.157 HD
ATOM   1324  C3'   C A  55     -17.023  17.528  31.172  1.00  0.00     0.198 C 
BRANCH 1314 1325
ATOM   1325  O2'   C A  55     -16.889  19.894  30.651  1.00  0.00    -0.388 OA
ATOM   1326 'HO2   C A  55     -17.231  20.739  30.944  1.00  0.00     0.210 HD
ENDBRANCH 1314 1325
BRANCH 1324 1327
ATOM   1327  O3'   C A  55     -15.886  17.368  30.326  1.00  0.00    -0.279 OA
BRANCH 1327 1328
ATOM   1328  P     A A  56     -14.770  16.268  30.689  1.00  0.00     0.408 P 
ATOM   1329  O5'   A A  56     -14.377  15.635  29.280  1.00  0.00    -0.287 OA
ATOM   1330  C5'   A A  56     -15.336  14.921  28.502  1.00  0.00     0.216 C 
ATOM   1331  C4'   A A  56     -14.654  14.209  27.357  1.00  0.00     0.180 C 
ATOM   1332  O4'   A A  56     -14.481  15.141  26.258  1.00  0.00    -0.353 OA
ATOM   1333  C3'   A A  56     -13.249  13.699  27.646  1.00  0.00     0.182 C 
ATOM   1334  C1'   A A  56     -13.254  14.883  25.600  1.00  0.00     0.262 C 
ATOM   1335  N9    A A  56     -12.425  16.085  25.686  1.00  0.00    -0.294 N 
ATOM   1336  C2'   A A  56     -12.622  13.654  26.256  1.00  0.00     0.198 C 
ATOM   1337  C4    A A  56     -11.682  16.636  24.670  1.00  0.00     0.167 A 
ATOM   1338  C8    A A  56     -12.222  16.891  26.779  1.00  0.00     0.214 A 
ATOM   1339  C5    A A  56     -11.066  17.748  25.213  1.00  0.00     0.149 A 
ATOM   1340  N3    A A  56     -11.570  16.190  23.407  1.00  0.00    -0.222 NA
ATOM   1341  C6    A A  56     -10.234  18.496  24.363  1.00  0.00     0.155 A 
ATOM   1342  N7    A A  56     -11.417  17.899  26.548  1.00  0.00    -0.236 NA
ATOM   1343  N1    A A  56     -10.100  18.075  23.087  1.00  0.00    -0.222 NA
ATOM   1344  N6    A A  56      -9.573  19.588  24.745  1.00  0.00    -0.382 N 
ATOM   1345  C2    A A  56     -10.761  16.976  22.701  1.00  0.00     0.237 A 
ATOM   1346  H61   A A  56      -9.656  19.921  25.694  1.00  0.00     0.157 HD
ATOM   1347  H62   A A  56      -8.996  20.081  24.080  1.00  0.00     0.157 HD
ATOM   1348  O2'   A A  56     -13.031  12.500  25.547  1.00  0.00    -0.388 OA
ATOM   1349 'HO2   A A  56     -13.229  11.826  26.200  1.00  0.00     0.210 HD
ATOM   1350  O3'   A A  56     -13.257  12.417  28.284  1.00  0.00    -0.390 OA
ATOM   1351 'HO3   A A  56     -13.789  12.501  29.079  1.00  0.00     0.210 HD
ATOM   1352  OP2   A A  56     -13.577  16.967  31.233  1.00  0.00    -0.624 OA
ATOM   1353  OP1   A A  56     -15.433  15.213  31.496  1.00  0.00    -0.624 OA
ENDBRANCH 1327 1328
ENDBRANCH 1324 1327
ENDBRANCH 1309 1310
ENDBRANCH 1308 1309
ENDBRANCH 1305 1308
ENDBRANCH 1304 1305
ENDBRANCH 1273 1304
ENDBRANCH 1158 1174
ENDBRANCH 1156 1157
ENDBRANCH 1155 1156
ENDBRANCH 1152 1155
ENDBRANCH 1151 1152
ENDBRANCH 1149 1151
ENDBRANCH 1134 1135
ENDBRANCH 1133 1134
ENDBRANCH 1130 1133
ENDBRANCH 1061 1130
ENDBRANCH 964 965
ENDBRANCH 963 964
ENDBRANCH 960 963
ENDBRANCH 959 960
ENDBRANCH 939 959
ENDBRANCH 937 938
ENDBRANCH 936 937
ENDBRANCH 933 936
ENDBRANCH 932 933
ENDBRANCH 844 932
BRANCH 927 1354
ATOM   1354  N4    C A  33      -2.443  -6.744  45.991  1.00  0.00    -0.384 N 
ATOM   1355  H42   C A  33      -1.709  -7.433  45.901  1.00  0.00     0.157 HD
ATOM   1356  H41   C A  33      -2.706  -6.403  46.905  1.00  0.00     0.157 HD
ENDBRANCH 927 1354
ENDBRANCH 742 743
ENDBRANCH 741 742
ENDBRANCH 738 741
ENDBRANCH 737 738
ENDBRANCH 703 737
ENDBRANCH 665 666
ENDBRANCH 664 665
ENDBRANCH 661 664
ENDBRANCH 660 661
ENDBRANCH 640 660
ENDBRANCH 638 639
ENDBRANCH 637 638
ENDBRANCH 634 637
ENDBRANCH 633 634
ENDBRANCH 588 633
BRANCH 561 1357
ATOM   1357  O2'   A A  24      -0.576   3.236  25.096  1.00  0.00    -0.388 OA
ATOM   1358 'HO2   A A  24       0.335   3.531  25.131  1.00  0.00     0.210 HD
ENDBRANCH 561 1357
BRANCH 631 1359
ATOM   1359  N9    A A  24      -2.668   1.356  27.426  1.00  0.00    -0.294 N 
ATOM   1360  C8    A A  24      -2.474   0.684  28.608  1.00  0.00     0.214 A 
ATOM   1361  N7    A A  24      -3.517   0.702  29.403  1.00  0.00    -0.236 NA
ATOM   1362  C5    A A  24      -4.461   1.436  28.698  1.00  0.00     0.149 A 
ATOM   1363  C4    A A  24      -3.951   1.844  27.479  1.00  0.00     0.167 A 
ATOM   1364  C6    A A  24      -5.781   1.816  28.997  1.00  0.00     0.155 A 
ATOM   1365  N3    A A  24      -4.587   2.569  26.543  1.00  0.00    -0.222 NA
ATOM   1366  C2    A A  24      -5.822   2.868  26.939  1.00  0.00     0.237 A 
ATOM   1367  N1    A A  24      -6.446   2.547  28.078  1.00  0.00    -0.222 NA
ATOM   1368  N6    A A  24      -6.406   1.498  30.130  1.00  0.00    -0.382 N 
ATOM   1369  H62   A A  24      -7.358   1.804  30.276  1.00  0.00     0.157 HD
ATOM   1370  H61   A A  24      -5.931   0.952  30.834  1.00  0.00     0.157 HD
ENDBRANCH 631 1359
ENDBRANCH 557 558
ENDBRANCH 556 557
ENDBRANCH 553 556
ENDBRANCH 552 553
ENDBRANCH 534 552
BRANCH 535 1371
ATOM   1371  O2'   G A  23       4.234  -1.688  32.573  1.00  0.00    -0.388 OA
ATOM   1372 'HO2   G A  23       5.115  -1.314  32.582  1.00  0.00     0.210 HD
ENDBRANCH 535 1371
ENDBRANCH 532 533
ENDBRANCH 531 532
ENDBRANCH 499 531
ENDBRANCH 484 485
ENDBRANCH 483 484
ENDBRANCH 480 483
ENDBRANCH 479 480
ENDBRANCH 465 479
BRANCH 467 1373
ATOM   1373  O2'   C A  20      -0.434  15.490  36.884  1.00  0.00    -0.388 OA
ATOM   1374 'HO2   C A  20      -1.245  15.690  37.352  1.00  0.00     0.210 HD
ENDBRANCH 467 1373
ENDBRANCH 462 463
ENDBRANCH 459 462
ENDBRANCH 458 459
ENDBRANCH 446 458
ENDBRANCH 441 442
ENDBRANCH 425 441
ENDBRANCH 299 300
ENDBRANCH 298 299
ENDBRANCH 295 298
ENDBRANCH 294 295
ENDBRANCH 291 294
ENDBRANCH 272 273
ENDBRANCH 271 272
ENDBRANCH 268 271
ENDBRANCH 267 268
ENDBRANCH 254 267
ENDBRANCH 249 250
ENDBRANCH 248 249
ENDBRANCH 245 248
ENDBRANCH 244 245
ENDBRANCH 227 244
ENDBRANCH 222 223
ENDBRANCH 206 222
ENDBRANCH 195 196
ENDBRANCH 194 195
ENDBRANCH 191 194
ENDBRANCH 190 191
ENDBRANCH 179 190
ENDBRANCH 173 174
ENDBRANCH 172 173
ENDBRANCH 169 172
ENDBRANCH 168 169
ENDBRANCH 167 168
TORSDOF 435
ENDMDL
MODEL 8
REMARK VINA RESULT:      -0.9      6.817     16.631
REMARK WARNING: 32 MAX_TORS EXCEEDED!!!
REMARK  104 active torsions:
REMARK  status: ('A' for Active; 'I' for Inactive)
REMARK       I    between atoms: O5'_2  and  C5'_3 
REMARK       I    between atoms: C5'_3  and  C4'_4 
REMARK       I    between atoms: C1'_6  and  N9_7 
REMARK       I    between atoms: C2_10  and  N2_11 
REMARK       I    between atoms: C2'_21  and  O2'_22 
REMARK       I    between atoms: C3'_24  and  O3'_25 
REMARK       I    between atoms: O3'_25  and  P_26 
REMARK       I    between atoms: P_26  and  O5'_29 
REMARK       I    between atoms: O5'_29  and  C5'_30 
REMARK       I    between atoms: C5'_30  and  C4'_31 
REMARK       I    between atoms: C1'_33  and  N9_34 
REMARK       I    between atoms: C6_39  and  N6_40 
REMARK       I    between atoms: C2'_46  and  O2'_47 
REMARK       I    between atoms: C3'_49  and  O3'_50 
REMARK       I    between atoms: O3'_50  and  P_51 
REMARK       I    between atoms: P_51  and  O5'_54 
REMARK       I    between atoms: O5'_54  and  C5'_55 
REMARK       I    between atoms: C5'_55  and  C4'_56 
REMARK       I    between atoms: C1'_58  and  N1_59 
REMARK       I    between atoms: C4_64  and  N4_65 
REMARK       I    between atoms: C2'_69  and  O2'_70 
REMARK       I    between atoms: C3'_72  and  O3'_73 
REMARK       I    between atoms: O3'_73  and  P_74 
REMARK       I    between atoms: P_74  and  O5'_77 
REMARK       I    between atoms: O5'_77  and  C5'_78 
REMARK       I    between atoms: C5'_78  and  C4'_79 
REMARK       I    between atoms: C1'_81  and  N1_82 
REMARK       I    between atoms: C4_87  and  N4_88 
REMARK       I    between atoms: C2'_92  and  O2'_93 
REMARK       I    between atoms: C3'_95  and  O3'_96 
REMARK       I    between atoms: O3'_96  and  P_97 
REMARK       I    between atoms: P_97  and  O5'_100 
REMARK       I    between atoms: O5'_100  and  C5'_101 
REMARK       I    between atoms: C5'_101  and  C4'_102 
REMARK       I    between atoms: C1'_104  and  N1_105 
REMARK       I    between atoms: C2'_114  and  O2'_115 
REMARK       I    between atoms: C3'_117  and  O3'_118 
REMARK       I    between atoms: O3'_118  and  P_119 
REMARK       I    between atoms: P_119  and  O5'_122 
REMARK       I    between atoms: O5'_122  and  C5'_123 
REMARK       I    between atoms: C5'_123  and  C4'_124 
REMARK       I    between atoms: C1'_126  and  N1_127 
REMARK       I    between atoms: C4_132  and  N4_133 
REMARK       I    between atoms: C2'_137  and  O2'_138 
REMARK       I    between atoms: C3'_140  and  O3'_141 
REMARK       I    between atoms: O3'_141  and  P_142 
REMARK       I    between atoms: P_142  and  O5'_145 
REMARK       I    between atoms: O5'_145  and  C5'_146 
REMARK       I    between atoms: C5'_146  and  C4'_147 
REMARK       I    between atoms: C1'_149  and  N9_150 
REMARK       I    between atoms: C2_153  and  N2_154 
REMARK       I    between atoms: C2'_164  and  O2'_165 
REMARK    1  A    between atoms: C3'_167  and  O3'_168 
REMARK    2  A    between atoms: O3'_168  and  P_169 
REMARK    3  A    between atoms: P_169  and  O5'_172 
REMARK    4  A    between atoms: O5'_172  and  C5'_173 
REMARK    5  A    between atoms: C5'_173  and  C4'_174 
REMARK       I    between atoms: C1'_176  and  N1_177 
REMARK    6  A    between atoms: C2'_186  and  O2'_187 
REMARK    7  A    between atoms: C3'_189  and  O3'_190 
REMARK    8  A    between atoms: O3'_190  and  P_191 
REMARK    9  A    between atoms: P_191  and  O5'_194 
REMARK   10  A    between atoms: O5'_194  and  C5'_195 
REMARK   11  A    between atoms: C5'_195  and  C4'_196 
REMARK       I    between atoms: C1'_198  and  N9_199 
REMARK       I    between atoms: C2_202  and  N2_203 
REMARK   12  A    between atoms: C2'_213  and  O2'_214 
REMARK       I    between atoms: C3'_216  and  O3'_217 
REMARK       I    between atoms: O3'_217  and  P_218 
REMARK       I    between atoms: P_218  and  O5'_221 
REMARK   13  A    between atoms: O5'_221  and  C5'_222 
REMARK   14  A    between atoms: C5'_222  and  C4'_223 
REMARK   15  A    between atoms: C1'_225  and  N9_226 
REMARK       I    between atoms: C2_229  and  N2_230 
REMARK   16  A    between atoms: C2'_240  and  O2'_241 
REMARK   17  A    between atoms: C3'_243  and  O3'_244 
REMARK   18  A    between atoms: O3'_244  and  P_245 
REMARK   19  A    between atoms: P_245  and  O5'_248 
REMARK   20  A    between atoms: O5'_248  and  C5'_249 
REMARK   21  A    between atoms: C5'_249  and  C4'_250 
REMARK   22  A    between atoms: C1'_252  and  N1_253 
REMARK       I    between atoms: C4_258  and  N4_259 
REMARK   23  A    between atoms: C2'_263  and  O2'_264 
REMARK   24  A    between atoms: C3'_266  and  O3'_267 
REMARK   25  A    between atoms: O3'_267  and  P_268 
REMARK   26  A    between atoms: P_268  and  O5'_271 
REMARK   27  A    between atoms: O5'_271  and  C5'_272 
REMARK   28  A    between atoms: C5'_272  and  C4'_273 
REMARK       I    between atoms: C1'_275  and  N9_276 
REMARK       I    between atoms: C2_279  and  N2_280 
REMARK   29  A    between atoms: C2'_290  and  O2'_291 
REMARK   30  A    between atoms: C3'_293  and  O3'_294 
REMARK   31  A    between atoms: O3'_294  and  P_295 
REMARK   32  A    between atoms: P_295  and  O5'_298 
REMARK   33  A    between atoms: O5'_298  and  C5'_299 
REMARK   34  A    between atoms: C5'_299  and  C4'_300 
REMARK       I    between atoms: C1'_302  and  N1_303 
REMARK       I    between atoms: C2'_312  and  O2'_313 
REMARK       I    between atoms: C3'_315  and  O3'_316 
REMARK       I    between atoms: O3'_316  and  P_317 
REMARK       I    between atoms: P_317  and  O5'_320 
REMARK       I    between atoms: O5'_320  and  C5'_321 
REMARK       I    between atoms: C5'_321  and  C4'_322 
REMARK       I    between atoms: C1'_324  and  N1_325 
REMARK       I    between atoms: C4_330  and  N4_331 
REMARK       I    between atoms: C2'_335  and  O2'_336 
REMARK       I    between atoms: C3'_338  and  O3'_339 
REMARK       I    between atoms: O3'_339  and  P_340 
REMARK       I    between atoms: P_340  and  O5'_343 
REMARK       I    between atoms: O5'_343  and  C5'_344 
REMARK       I    between atoms: C5'_344  and  C4'_345 
REMARK       I    between atoms: C1'_347  and  N1_348 
REMARK       I    between atoms: C2'_357  and  O2'_358 
REMARK       I    between atoms: C3'_360  and  O3'_361 
REMARK       I    between atoms: O3'_361  and  P_362 
REMARK       I    between atoms: P_362  and  O5'_365 
REMARK       I    between atoms: O5'_365  and  C5'_366 
REMARK       I    between atoms: C5'_366  and  C4'_367 
REMARK       I    between atoms: C1'_369  and  N9_370 
REMARK       I    between atoms: C2_373  and  N2_374 
REMARK       I    between atoms: C2'_384  and  O2'_385 
REMARK       I    between atoms: C3'_387  and  O3'_388 
REMARK       I    between atoms: O3'_388  and  P_389 
REMARK       I    between atoms: P_389  and  O5'_392 
REMARK       I    between atoms: O5'_392  and  C5'_393 
REMARK       I    between atoms: C5'_393  and  C4'_394 
REMARK       I    between atoms: C1'_396  and  N9_397 
REMARK       I    between atoms: C6_402  and  N6_403 
REMARK       I    between atoms: C2'_409  and  O2'_410 
REMARK       I    between atoms: C3'_412  and  O3'_413 
REMARK       I    between atoms: O3'_413  and  P_414 
REMARK       I    between atoms: P_414  and  O5'_417 
REMARK       I    between atoms: O5'_417  and  C5'_418 
REMARK       I    between atoms: C5'_418  and  C4'_419 
REMARK       I    between atoms: C1'_421  and  N1_422 
REMARK       I    between atoms: C4_427  and  N4_428 
REMARK       I    between atoms: C2'_432  and  O2'_433 
REMARK       I    between atoms: C3'_435  and  O3'_436 
REMARK       I    between atoms: O3'_436  and  P_437 
REMARK       I    between atoms: P_437  and  O5'_440 
REMARK   35  A    between atoms: O5'_440  and  C5'_441 
REMARK   36  A    between atoms: C5'_441  and  C4'_442 
REMARK   37  A    between atoms: C1'_444  and  N1_445 
REMARK   38  A    between atoms: C2'_454  and  O2'_455 
REMARK   39  A    between atoms: C3'_457  and  O3'_458 
REMARK   40  A    between atoms: O3'_458  and  P_459 
REMARK   41  A    between atoms: P_459  and  O5'_462 
REMARK   42  A    between atoms: O5'_462  and  C5'_463 
REMARK       I    between atoms: C5'_463  and  C4'_464 
REMARK       I    between atoms: C1'_466  and  N1_467 
REMARK       I    between atoms: C4_472  and  N4_473 
REMARK   43  A    between atoms: C2'_477  and  O2'_478 
REMARK   44  A    between atoms: C3'_480  and  O3'_481 
REMARK   45  A    between atoms: O3'_481  and  P_482 
REMARK   46  A    between atoms: P_482  and  O5'_485 
REMARK   47  A    between atoms: O5'_485  and  C5'_486 
REMARK   48  A    between atoms: C5'_486  and  C4'_487 
REMARK       I    between atoms: C1'_489  and  N1_490 
REMARK       I    between atoms: C4_495  and  N4_496 
REMARK       I    between atoms: C2'_500  and  O2'_501 
REMARK       I    between atoms: C3'_503  and  O3'_504 
REMARK       I    between atoms: O3'_504  and  P_505 
REMARK       I    between atoms: P_505  and  O5'_508 
REMARK       I    between atoms: O5'_508  and  C5'_509 
REMARK       I    between atoms: C5'_509  and  C4'_510 
REMARK       I    between atoms: C1'_512  and  N9_513 
REMARK       I    between atoms: C6_518  and  N6_519 
REMARK       I    between atoms: C2'_525  and  O2'_526 
REMARK       I    between atoms: C3'_528  and  O3'_529 
REMARK       I    between atoms: O3'_529  and  P_530 
REMARK   49  A    between atoms: P_530  and  O5'_533 
REMARK   50  A    between atoms: O5'_533  and  C5'_534 
REMARK   51  A    between atoms: C5'_534  and  C4'_535 
REMARK       I    between atoms: C1'_537  and  N9_538 
REMARK       I    between atoms: C2_541  and  N2_542 
REMARK   52  A    between atoms: C2'_552  and  O2'_553 
REMARK   53  A    between atoms: C3'_555  and  O3'_556 
REMARK   54  A    between atoms: O3'_556  and  P_557 
REMARK   55  A    between atoms: P_557  and  O5'_560 
REMARK   56  A    between atoms: O5'_560  and  C5'_561 
REMARK   57  A    between atoms: C5'_561  and  C4'_562 
REMARK   58  A    between atoms: C1'_564  and  N9_565 
REMARK       I    between atoms: C6_570  and  N6_571 
REMARK   59  A    between atoms: C2'_577  and  O2'_578 
REMARK       I    between atoms: C3'_580  and  O3'_581 
REMARK       I    between atoms: O3'_581  and  P_582 
REMARK       I    between atoms: P_582  and  O5'_585 
REMARK       I    between atoms: O5'_585  and  C5'_586 
REMARK       I    between atoms: C5'_586  and  C4'_587 
REMARK       I    between atoms: C1'_589  and  N1_590 
REMARK       I    between atoms: C2'_599  and  O2'_600 
REMARK       I    between atoms: C3'_602  and  O3'_603 
REMARK       I    between atoms: O3'_603  and  P_604 
REMARK       I    between atoms: P_604  and  O5'_607 
REMARK       I    between atoms: O5'_607  and  C5'_608 
REMARK       I    between atoms: C5'_608  and  C4'_609 
REMARK       I    between atoms: C1'_611  and  N1_612 
REMARK       I    between atoms: C4_617  and  N4_618 
REMARK       I    between atoms: C2'_622  and  O2'_623 
REMARK       I    between atoms: C3'_625  and  O3'_626 
REMARK       I    between atoms: O3'_626  and  P_627 
REMARK       I    between atoms: P_627  and  O5'_630 
REMARK       I    between atoms: O5'_630  and  C5'_631 
REMARK       I    between atoms: C5'_631  and  C4'_632 
REMARK       I    between atoms: C1'_634  and  N9_635 
REMARK       I    between atoms: C6_640  and  N6_641 
REMARK       I    between atoms: C2'_647  and  O2'_648 
REMARK   60  A    between atoms: C3'_650  and  O3'_651 
REMARK   61  A    between atoms: O3'_651  and  P_652 
REMARK   62  A    between atoms: P_652  and  O5'_655 
REMARK   63  A    between atoms: O5'_655  and  C5'_656 
REMARK   64  A    between atoms: C5'_656  and  C4'_657 
REMARK       I    between atoms: C1'_659  and  N9_660 
REMARK       I    between atoms: C2_663  and  N2_664 
REMARK       I    between atoms: C2'_674  and  O2'_675 
REMARK   65  A    between atoms: C3'_677  and  O3'_678 
REMARK   66  A    between atoms: O3'_678  and  P_679 
REMARK   67  A    between atoms: P_679  and  O5'_682 
REMARK   68  A    between atoms: O5'_682  and  C5'_683 
REMARK   69  A    between atoms: C5'_683  and  C4'_684 
REMARK       I    between atoms: C1'_686  and  N9_687 
REMARK       I    between atoms: C6_692  and  N6_693 
REMARK       I    between atoms: C2'_699  and  O2'_700 
REMARK       I    between atoms: C3'_702  and  O3'_703 
REMARK       I    between atoms: O3'_703  and  P_704 
REMARK       I    between atoms: P_704  and  O5'_707 
REMARK       I    between atoms: O5'_707  and  C5'_708 
REMARK       I    between atoms: C5'_708  and  C4'_709 
REMARK       I    between atoms: C1'_711  and  N9_712 
REMARK       I    between atoms: C6_717  and  N6_718 
REMARK       I    between atoms: C2'_724  and  O2'_725 
REMARK       I    between atoms: C3'_727  and  O3'_728 
REMARK       I    between atoms: O3'_728  and  P_729 
REMARK       I    between atoms: P_729  and  O5'_732 
REMARK       I    between atoms: O5'_732  and  C5'_733 
REMARK       I    between atoms: C5'_733  and  C4'_734 
REMARK       I    between atoms: C1'_736  and  N9_737 
REMARK       I    between atoms: C2_740  and  N2_741 
REMARK       I    between atoms: C2'_751  and  O2'_752 
REMARK   70  A    between atoms: C3'_754  and  O3'_755 
REMARK   71  A    between atoms: O3'_755  and  P_756 
REMARK   72  A    between atoms: P_756  and  O5'_759 
REMARK   73  A    between atoms: O5'_759  and  C5'_760 
REMARK   74  A    between atoms: C5'_760  and  C4'_761 
REMARK       I    between atoms: C1'_763  and  N9_764 
REMARK       I    between atoms: C2_767  and  N2_768 
REMARK       I    between atoms: C2'_778  and  O2'_779 
REMARK       I    between atoms: C3'_781  and  O3'_782 
REMARK       I    between atoms: O3'_782  and  P_783 
REMARK       I    between atoms: P_783  and  O5'_786 
REMARK       I    between atoms: O5'_786  and  C5'_787 
REMARK       I    between atoms: C5'_787  and  C4'_788 
REMARK       I    between atoms: C1'_790  and  N1_791 
REMARK   75  A    between atoms: C4_796  and  N4_797 
REMARK       I    between atoms: C2'_801  and  O2'_802 
REMARK       I    between atoms: C3'_804  and  O3'_805 
REMARK       I    between atoms: O3'_805  and  P_806 
REMARK       I    between atoms: P_806  and  O5'_809 
REMARK       I    between atoms: O5'_809  and  C5'_810 
REMARK       I    between atoms: C5'_810  and  C4'_811 
REMARK       I    between atoms: C1'_813  and  N1_814 
REMARK       I    between atoms: C2'_823  and  O2'_824 
REMARK       I    between atoms: C3'_826  and  O3'_827 
REMARK       I    between atoms: O3'_827  and  P_828 
REMARK       I    between atoms: P_828  and  O5'_831 
REMARK       I    between atoms: O5'_831  and  C5'_832 
REMARK       I    between atoms: C5'_832  and  C4'_833 
REMARK       I    between atoms: C1'_835  and  N9_836 
REMARK       I    between atoms: C2_839  and  N2_840 
REMARK       I    between atoms: C2'_850  and  O2'_851 
REMARK       I    between atoms: C3'_853  and  O3'_854 
REMARK       I    between atoms: O3'_854  and  P_855 
REMARK       I    between atoms: P_855  and  O5'_858 
REMARK       I    between atoms: O5'_858  and  C5'_859 
REMARK       I    between atoms: C5'_859  and  C4'_860 
REMARK       I    between atoms: C1'_862  and  N1_863 
REMARK       I    between atoms: C4_868  and  N4_869 
REMARK       I    between atoms: C2'_873  and  O2'_874 
REMARK       I    between atoms: C3'_876  and  O3'_877 
REMARK       I    between atoms: O3'_877  and  P_878 
REMARK       I    between atoms: P_878  and  O5'_881 
REMARK       I    between atoms: O5'_881  and  C5'_882 
REMARK       I    between atoms: C5'_882  and  C4'_883 
REMARK       I    between atoms: C1'_885  and  N9_886 
REMARK       I    between atoms: C2_889  and  N2_890 
REMARK       I    between atoms: C2'_900  and  O2'_901 
REMARK       I    between atoms: C3'_903  and  O3'_904 
REMARK       I    between atoms: O3'_904  and  P_905 
REMARK       I    between atoms: P_905  and  O5'_908 
REMARK       I    between atoms: O5'_908  and  C5'_909 
REMARK       I    between atoms: C5'_909  and  C4'_910 
REMARK       I    between atoms: C1'_912  and  N1_913 
REMARK       I    between atoms: C2'_922  and  O2'_923 
REMARK       I    between atoms: C3'_925  and  O3'_926 
REMARK       I    between atoms: O3'_926  and  P_927 
REMARK       I    between atoms: P_927  and  O5'_930 
REMARK       I    between atoms: O5'_930  and  C5'_931 
REMARK       I    between atoms: C5'_931  and  C4'_932 
REMARK       I    between atoms: C1'_934  and  N9_935 
REMARK       I    between atoms: C2_938  and  N2_939 
REMARK   76  A    between atoms: C2'_949  and  O2'_950 
REMARK   77  A    between atoms: C3'_952  and  O3'_953 
REMARK   78  A    between atoms: O3'_953  and  P_954 
REMARK   79  A    between atoms: P_954  and  O5'_957 
REMARK   80  A    between atoms: O5'_957  and  C5'_958 
REMARK   81  A    between atoms: C5'_958  and  C4'_959 
REMARK       I    between atoms: C1'_961  and  N9_962 
REMARK       I    between atoms: C2_965  and  N2_966 
REMARK       I    between atoms: C2'_976  and  O2'_977 
REMARK   82  A    between atoms: C3'_979  and  O3'_980 
REMARK   83  A    between atoms: O3'_980  and  P_981 
REMARK   84  A    between atoms: P_981  and  O5'_984 
REMARK   85  A    between atoms: O5'_984  and  C5'_985 
REMARK   86  A    between atoms: C5'_985  and  C4'_986 
REMARK       I    between atoms: C1'_988  and  N9_989 
REMARK       I    between atoms: C6_994  and  N6_995 
REMARK       I    between atoms: C2'_1001  and  O2'_1002 
REMARK       I    between atoms: C3'_1004  and  O3'_1005 
REMARK       I    between atoms: O3'_1005  and  P_1006 
REMARK       I    between atoms: P_1006  and  O5'_1009 
REMARK       I    between atoms: O5'_1009  and  C5'_1010 
REMARK       I    between atoms: C5'_1010  and  C4'_1011 
REMARK       I    between atoms: C1'_1013  and  N9_1014 
REMARK       I    between atoms: C6_1019  and  N6_1020 
REMARK       I    between atoms: C2'_1026  and  O2'_1027 
REMARK       I    between atoms: C3'_1029  and  O3'_1030 
REMARK       I    between atoms: O3'_1030  and  P_1031 
REMARK       I    between atoms: P_1031  and  O5'_1034 
REMARK       I    between atoms: O5'_1034  and  C5'_1035 
REMARK       I    between atoms: C5'_1035  and  C4'_1036 
REMARK       I    between atoms: C1'_1038  and  N1_1039 
REMARK       I    between atoms: C2'_1048  and  O2'_1049 
REMARK       I    between atoms: C3'_1051  and  O3'_1052 
REMARK       I    between atoms: O3'_1052  and  P_1053 
REMARK       I    between atoms: P_1053  and  O5'_1056 
REMARK       I    between atoms: O5'_1056  and  C5'_1057 
REMARK       I    between atoms: C5'_1057  and  C4'_1058 
REMARK       I    between atoms: C1'_1060  and  N1_1061 
REMARK       I    between atoms: C4_1066  and  N4_1067 
REMARK       I    between atoms: C2'_1071  and  O2'_1072 
REMARK       I    between atoms: C3'_1074  and  O3'_1075 
REMARK       I    between atoms: O3'_1075  and  P_1076 
REMARK       I    between atoms: P_1076  and  O5'_1079 
REMARK       I    between atoms: O5'_1079  and  C5'_1080 
REMARK       I    between atoms: C5'_1080  and  C4'_1081 
REMARK       I    between atoms: C1'_1083  and  N9_1084 
REMARK       I    between atoms: C6_1089  and  N6_1090 
REMARK       I    between atoms: C2'_1096  and  O2'_1097 
REMARK       I    between atoms: C3'_1099  and  O3'_1100 
REMARK       I    between atoms: O3'_1100  and  P_1101 
REMARK       I    between atoms: P_1101  and  O5'_1104 
REMARK       I    between atoms: O5'_1104  and  C5'_1105 
REMARK       I    between atoms: C5'_1105  and  C4'_1106 
REMARK       I    between atoms: C1'_1108  and  N1_1109 
REMARK       I    between atoms: C4_1114  and  N4_1115 
REMARK       I    between atoms: C2'_1119  and  O2'_1120 
REMARK       I    between atoms: C3'_1122  and  O3'_1123 
REMARK       I    between atoms: O3'_1123  and  P_1124 
REMARK       I    between atoms: P_1124  and  O5'_1127 
REMARK       I    between atoms: O5'_1127  and  C5'_1128 
REMARK       I    between atoms: C5'_1128  and  C4'_1129 
REMARK       I    between atoms: C1'_1131  and  N9_1132 
REMARK       I    between atoms: C2_1135  and  N2_1136 
REMARK       I    between atoms: C2'_1146  and  O2'_1147 
REMARK       I    between atoms: C3'_1149  and  O3'_1150 
REMARK   87  A    between atoms: O3'_1150  and  P_1151 
REMARK   88  A    between atoms: P_1151  and  O5'_1154 
REMARK   89  A    between atoms: O5'_1154  and  C5'_1155 
REMARK   90  A    between atoms: C5'_1155  and  C4'_1156 
REMARK       I    between atoms: C1'_1158  and  N1_1159 
REMARK       I    between atoms: C2'_1168  and  O2'_1169 
REMARK   91  A    between atoms: C3'_1171  and  O3'_1172 
REMARK   92  A    between atoms: O3'_1172  and  P_1173 
REMARK   93  A    between atoms: P_1173  and  O5'_1176 
REMARK   94  A    between atoms: O5'_1176  and  C5'_1177 
REMARK   95  A    between atoms: C5'_1177  and  C4'_1178 
REMARK       I    between atoms: C1'_1180  and  N1_1181 
REMARK       I    between atoms: C4_1186  and  N4_1187 
REMARK       I    between atoms: C2'_1191  and  O2'_1192 
REMARK   96  A    between atoms: C3'_1194  and  O3'_1195 
REMARK       I    between atoms: O3'_1195  and  P_1196 
REMARK       I    between atoms: P_1196  and  O5'_1199 
REMARK       I    between atoms: O5'_1199  and  C5'_1200 
REMARK       I    between atoms: C5'_1200  and  C4'_1201 
REMARK       I    between atoms: C1'_1203  and  N9_1204 
REMARK       I    between atoms: C2_1207  and  N2_1208 
REMARK       I    between atoms: C2'_1218  and  O2'_1219 
REMARK       I    between atoms: C3'_1221  and  O3'_1222 
REMARK       I    between atoms: O3'_1222  and  P_1223 
REMARK       I    between atoms: P_1223  and  O5'_1226 
REMARK       I    between atoms: O5'_1226  and  C5'_1227 
REMARK       I    between atoms: C5'_1227  and  C4'_1228 
REMARK       I    between atoms: C1'_1230  and  N9_1231 
REMARK       I    between atoms: C2_1234  and  N2_1235 
REMARK       I    between atoms: C2'_1245  and  O2'_1246 
REMARK       I    between atoms: C3'_1248  and  O3'_1249 
REMARK       I    between atoms: O3'_1249  and  P_1250 
REMARK       I    between atoms: P_1250  and  O5'_1253 
REMARK       I    between atoms: O5'_1253  and  C5'_1254 
REMARK       I    between atoms: C5'_1254  and  C4'_1255 
REMARK       I    between atoms: C1'_1257  and  N9_1258 
REMARK       I    between atoms: C2_1261  and  N2_1262 
REMARK       I    between atoms: C2'_1272  and  O2'_1273 
REMARK       I    between atoms: C3'_1275  and  O3'_1276 
REMARK       I    between atoms: O3'_1276  and  P_1277 
REMARK       I    between atoms: P_1277  and  O5'_1280 
REMARK       I    between atoms: O5'_1280  and  C5'_1281 
REMARK       I    between atoms: C5'_1281  and  C4'_1282 
REMARK       I    between atoms: C1'_1284  and  N9_1285 
REMARK       I    between atoms: C2_1288  and  N2_1289 
REMARK       I    between atoms: C2'_1299  and  O2'_1300 
REMARK       I    between atoms: C3'_1302  and  O3'_1303 
REMARK       I    between atoms: O3'_1303  and  P_1304 
REMARK       I    between atoms: P_1304  and  O5'_1307 
REMARK       I    between atoms: O5'_1307  and  C5'_1308 
REMARK       I    between atoms: C5'_1308  and  C4'_1309 
REMARK       I    between atoms: C1'_1311  and  N1_1312 
REMARK       I    between atoms: C2'_1321  and  O2'_1322 
REMARK   97  A    between atoms: C3'_1324  and  O3'_1325 
REMARK   98  A    between atoms: O3'_1325  and  P_1326 
REMARK   99  A    between atoms: P_1326  and  O5'_1329 
REMARK  100  A    between atoms: O5'_1329  and  C5'_1330 
REMARK  101  A    between atoms: C5'_1330  and  C4'_1331 
REMARK       I    between atoms: C1'_1333  and  N1_1334 
REMARK       I    between atoms: C4_1339  and  N4_1340 
REMARK  102  A    between atoms: C2'_1344  and  O2'_1345 
REMARK  103  A    between atoms: C3'_1347  and  O3'_1348 
REMARK  104  A    between atoms: O3'_1348  and  P_1349 
REMARK       I    between atoms: P_1349  and  O5'_1352 
REMARK       I    between atoms: O5'_1352  and  C5'_1353 
REMARK       I    between atoms: C5'_1353  and  C4'_1354 
REMARK       I    between atoms: C1'_1356  and  N9_1357 
REMARK       I    between atoms: C6_1362  and  N6_1363 
REMARK       I    between atoms: C2'_1369  and  O2'_1370 
REMARK       I    between atoms: C3'_1372  and  O3'_1373 
ROOT
ATOM      1 'HO5   G A   1     -41.403  12.177  14.665  1.00  0.00     0.209 HD
ATOM      2  O5'   G A   1     -40.688  11.578  14.433  1.00  0.00    -0.398 OA
ATOM      3  C5'   G A   1     -39.748  12.331  13.662  1.00  0.00     0.198 C 
ATOM      4  C4'   G A   1     -39.773  13.793  14.051  1.00  0.00     0.180 C 
ATOM      5  O4'   G A   1     -40.955  14.047  14.865  1.00  0.00    -0.353 OA
ATOM      6  C1'   G A   1     -40.604  14.852  15.977  1.00  0.00     0.262 C 
ATOM      7  N9    G A   1     -40.667  14.029  17.182  1.00  0.00    -0.293 N 
ATOM      8  C4    G A   1     -40.583  14.475  18.478  1.00  0.00     0.187 A 
ATOM      9  N3    G A   1     -40.434  15.758  18.868  1.00  0.00    -0.044 NA
ATOM     10  C2    G A   1     -40.387  15.871  20.183  1.00  0.00     0.703 A 
ATOM     11  N2    G A   1     -40.244  17.075  20.739  1.00  0.00    -0.233 N 
ATOM     12  H21   G A   1     -40.172  17.890  20.148  1.00  0.00     0.174 HD
ATOM     13  H22   G A   1     -40.210  17.171  21.745  1.00  0.00     0.174 HD
ATOM     14  N1    G A   1     -40.477  14.811  21.048  1.00  0.00    -0.153 N 
ATOM     15  H1    G A   1     -40.430  15.009  22.036  1.00  0.00     0.187 HD
ATOM     16  C6    G A   1     -40.627  13.482  20.672  1.00  0.00     0.292 A 
ATOM     17  O6    G A   1     -40.693  12.601  21.538  1.00  0.00    -0.265 OA
ATOM     18  C5    G A   1     -40.683  13.343  19.261  1.00  0.00     0.173 A 
ATOM     19  N7    G A   1     -40.827  12.210  18.473  1.00  0.00    -0.234 NA
ATOM     20  C8    G A   1     -40.813  12.665  17.251  1.00  0.00     0.214 A 
ATOM     21  C2'   G A   1     -39.213  15.412  15.694  1.00  0.00     0.199 C 
ATOM     22  O2'   G A   1     -39.342  16.572  14.893  1.00  0.00    -0.388 OA
ATOM     23 'HO2   G A   1     -38.465  16.794  14.583  1.00  0.00     0.210 HD
ATOM     24  C3'   G A   1     -38.602  14.259  14.908  1.00  0.00     0.198 C 
ATOM     25  O3'   G A   1     -37.493  14.666  14.112  1.00  0.00    -0.279 OA
ATOM     26  P     A A   2     -35.995  14.384  14.627  1.00  0.00     0.408 P 
ATOM     27  OP1   A A   2     -35.072  14.792  13.537  1.00  0.00    -0.624 OA
ATOM     28  OP2   A A   2     -35.933  13.000  15.160  1.00  0.00    -0.624 OA
ATOM     29  O5'   A A   2     -35.807  15.396  15.844  1.00  0.00    -0.287 OA
ATOM     30  C5'   A A   2     -35.819  16.806  15.635  1.00  0.00     0.216 C 
ATOM     31  C4'   A A   2     -35.616  17.531  16.945  1.00  0.00     0.180 C 
ATOM     32  O4'   A A   2     -36.792  17.341  17.779  1.00  0.00    -0.353 OA
ATOM     33  C1'   A A   2     -36.397  17.193  19.133  1.00  0.00     0.262 C 
ATOM     34  N9    A A   2     -36.773  15.851  19.580  1.00  0.00    -0.294 N 
ATOM     35  C4    A A   2     -36.894  15.434  20.882  1.00  0.00     0.167 A 
ATOM     36  N3    A A   2     -36.697  16.163  21.994  1.00  0.00    -0.222 NA
ATOM     37  C2    A A   2     -36.904  15.426  23.082  1.00  0.00     0.237 A 
ATOM     38  N1    A A   2     -37.258  14.138  23.178  1.00  0.00    -0.222 NA
ATOM     39  C6    A A   2     -37.448  13.433  22.042  1.00  0.00     0.155 A 
ATOM     40  N6    A A   2     -37.802  12.151  22.139  1.00  0.00    -0.382 N 
ATOM     41  H61   A A   2     -37.949  11.607  21.301  1.00  0.00     0.157 HD
ATOM     42  H62   A A   2     -37.922  11.724  23.047  1.00  0.00     0.157 HD
ATOM     43  C5    A A   2     -37.261  14.101  20.820  1.00  0.00     0.149 A 
ATOM     44  N7    A A   2     -37.371  13.686  19.500  1.00  0.00    -0.236 NA
ATOM     45  C8    A A   2     -37.073  14.757  18.806  1.00  0.00     0.214 A 
ATOM     46  C2'   A A   2     -34.894  17.458  19.200  1.00  0.00     0.199 C 
ATOM     47  O2'   A A   2     -34.686  18.844  19.402  1.00  0.00    -0.388 OA
ATOM     48 'HO2   A A   2     -33.878  19.071  18.941  1.00  0.00     0.210 HD
ATOM     49  C3'   A A   2     -34.462  17.031  17.804  1.00  0.00     0.198 C 
ATOM     50  O3'   A A   2     -33.222  17.613  17.413  1.00  0.00    -0.279 OA
ATOM     51  P     C A   3     -31.854  16.787  17.610  1.00  0.00     0.408 P 
ATOM     52  OP1   C A   3     -30.777  17.554  16.933  1.00  0.00    -0.624 OA
ATOM     53  OP2   C A   3     -32.096  15.372  17.232  1.00  0.00    -0.624 OA
ATOM     54  O5'   C A   3     -31.592  16.845  19.182  1.00  0.00    -0.287 OA
ATOM     55  C5'   C A   3     -31.248  18.071  19.824  1.00  0.00     0.216 C 
ATOM     56  C4'   C A   3     -31.357  17.925  21.325  1.00  0.00     0.180 C 
ATOM     57  O4'   C A   3     -32.688  17.451  21.669  1.00  0.00    -0.353 OA
ATOM     58  C1'   C A   3     -32.613  16.621  22.818  1.00  0.00     0.264 C 
ATOM     59  N1    C A   3     -33.121  15.284  22.469  1.00  0.00    -0.278 N 
ATOM     60  C6    C A   3     -33.277  14.908  21.163  1.00  0.00     0.102 A 
ATOM     61  C2    C A   3     -33.437  14.394  23.500  1.00  0.00     0.352 A 
ATOM     62  O2    C A   3     -33.289  14.758  24.675  1.00  0.00    -0.244 OA
ATOM     63  N3    C A   3     -33.896  13.162  23.193  1.00  0.00    -0.177 NA
ATOM     64  C4    C A   3     -34.045  12.805  21.917  1.00  0.00     0.128 A 
ATOM     65  N4    C A   3     -34.498  11.578  21.664  1.00  0.00    -0.384 N 
ATOM     66  H41   C A   3     -34.624  11.267  20.712  1.00  0.00     0.157 HD
ATOM     67  H42   C A   3     -34.713  10.957  22.432  1.00  0.00     0.157 HD
ATOM     68  C5    C A   3     -33.734  13.690  20.843  1.00  0.00     0.067 A 
ATOM     69  C2'   C A   3     -31.154  16.612  23.277  1.00  0.00     0.199 C 
ATOM     70  O2'   C A   3     -30.965  17.665  24.204  1.00  0.00    -0.388 OA
ATOM     71 'HO2   C A   3     -30.283  18.235  23.845  1.00  0.00     0.210 HD
ATOM     72  C3'   C A   3     -30.437  16.895  21.964  1.00  0.00     0.198 C 
ATOM     73  O3'   C A   3     -29.116  17.393  22.161  1.00  0.00    -0.279 OA
ATOM     74  P     C A   4     -27.888  16.363  22.315  1.00  0.00     0.408 P 
ATOM     75  OP1   C A   4     -26.631  17.133  22.148  1.00  0.00    -0.624 OA
ATOM     76  OP2   C A   4     -28.150  15.190  21.441  1.00  0.00    -0.624 OA
ATOM     77  O5'   C A   4     -27.976  15.873  23.831  1.00  0.00    -0.287 OA
ATOM     78  C5'   C A   4     -28.139  16.807  24.898  1.00  0.00     0.216 C 
ATOM     79  C4'   C A   4     -28.147  16.088  26.228  1.00  0.00     0.180 C 
ATOM     80  O4'   C A   4     -29.478  15.545  26.459  1.00  0.00    -0.353 OA
ATOM     81  C1'   C A   4     -29.377  14.231  26.979  1.00  0.00     0.264 C 
ATOM     82  N1    C A   4     -29.848  13.285  25.953  1.00  0.00    -0.278 N 
ATOM     83  C6    C A   4     -29.744  13.587  24.623  1.00  0.00     0.102 A 
ATOM     84  C2    C A   4     -30.401  12.066  26.357  1.00  0.00     0.352 A 
ATOM     85  O2    C A   4     -30.487  11.816  27.568  1.00  0.00    -0.244 OA
ATOM     86  N3    C A   4     -30.828  11.190  25.419  1.00  0.00    -0.177 NA
ATOM     87  C4    C A   4     -30.722  11.495  24.124  1.00  0.00     0.128 A 
ATOM     88  N4    C A   4     -31.154  10.600  23.238  1.00  0.00    -0.384 N 
ATOM     89  H41   C A   4     -31.090  10.788  22.248  1.00  0.00     0.157 HD
ATOM     90  H42   C A   4     -31.545   9.725  23.559  1.00  0.00     0.157 HD
ATOM     91  C5    C A   4     -30.165  12.731  23.684  1.00  0.00     0.067 A 
ATOM     92  C2'   C A   4     -27.919  14.028  27.380  1.00  0.00     0.199 C 
ATOM     93  O2'   C A   4     -27.728  14.545  28.684  1.00  0.00    -0.388 OA
ATOM     94 'HO2   C A   4     -26.809  14.812  28.744  1.00  0.00     0.210 HD
ATOM     95  C3'   C A   4     -27.218  14.884  26.334  1.00  0.00     0.198 C 
ATOM     96  O3'   C A   4     -25.900  15.257  26.732  1.00  0.00    -0.279 OA
ATOM     97  P     T A   5     -24.628  14.627  25.974  1.00  0.00     0.408 P 
ATOM     98  OP1   T A   5     -23.412  15.300  26.499  1.00  0.00    -0.624 OA
ATOM     99  OP2   T A   5     -24.903  14.642  24.515  1.00  0.00    -0.624 OA
ATOM    100  O5'   T A   5     -24.604  13.106  26.454  1.00  0.00    -0.287 OA
ATOM    101  C5'   T A   5     -24.000  12.730  27.693  1.00  0.00     0.216 C 
ATOM    102  C4'   T A   5     -24.872  11.728  28.418  1.00  0.00     0.180 C 
ATOM    103  O4'   T A   5     -26.254  11.916  28.008  1.00  0.00    -0.353 OA
ATOM    104  C1'   T A   5     -26.890  10.658  27.866  1.00  0.00     0.264 C 
ATOM    105  N1    T A   5     -27.263  10.480  26.454  1.00  0.00    -0.280 N 
ATOM    106  C6    T A   5     -26.925  11.418  25.502  1.00  0.00     0.104 A 
ATOM    107  C2    T A   5     -27.966   9.339  26.109  1.00  0.00     0.331 A 
ATOM    108  O2    T A   5     -28.287   8.486  26.919  1.00  0.00    -0.246 OA
ATOM    109  N3    T A   5     -28.281   9.233  24.779  1.00  0.00    -0.275 N 
ATOM    110  H3    T A   5     -28.805   8.419  24.500  1.00  0.00     0.173 HD
ATOM    111  C4    T A   5     -27.976  10.128  23.781  1.00  0.00     0.250 A 
ATOM    112  O4    T A   5     -28.324   9.884  22.625  1.00  0.00    -0.268 OA
ATOM    113  C5    T A   5     -27.254  11.281  24.215  1.00  0.00     0.092 A 
ATOM    114  C2'   T A   5     -25.922   9.596  28.388  1.00  0.00     0.199 C 
ATOM    115  O2'   T A   5     -26.143   9.427  29.776  1.00  0.00    -0.388 OA
ATOM    116 'HO2   T A   5     -25.311   9.614  30.213  1.00  0.00     0.210 HD
ATOM    117  C3'   T A   5     -24.579  10.263  28.116  1.00  0.00     0.198 C 
ATOM    118  O3'   T A   5     -23.540   9.752  28.948  1.00  0.00    -0.279 OA
ATOM    119  P     C A   6     -22.177   9.207  28.287  1.00  0.00     0.408 P 
ATOM    120  OP1   C A   6     -21.207   8.998  29.393  1.00  0.00    -0.624 OA
ATOM    121  OP2   C A   6     -21.817  10.099  27.156  1.00  0.00    -0.624 OA
ATOM    122  O5'   C A   6     -22.581   7.783  27.690  1.00  0.00    -0.287 OA
ATOM    123  C5'   C A   6     -21.684   6.671  27.744  1.00  0.00     0.216 C 
ATOM    124  C4'   C A   6     -22.428   5.414  28.148  1.00  0.00     0.180 C 
ATOM    125  O4'   C A   6     -23.806   5.766  28.475  1.00  0.00    -0.353 OA
ATOM    126  C1'   C A   6     -24.691   4.884  27.808  1.00  0.00     0.264 C 
ATOM    127  N1    C A   6     -25.256   5.576  26.637  1.00  0.00    -0.278 N 
ATOM    128  C6    C A   6     -25.035   6.909  26.431  1.00  0.00     0.102 A 
ATOM    129  C2    C A   6     -26.012   4.839  25.728  1.00  0.00     0.352 A 
ATOM    130  O2    C A   6     -26.219   3.636  25.952  1.00  0.00    -0.244 OA
ATOM    131  N3    C A   6     -26.503   5.447  24.629  1.00  0.00    -0.177 NA
ATOM    132  C4    C A   6     -26.275   6.743  24.426  1.00  0.00     0.128 A 
ATOM    133  N4    C A   6     -26.773   7.292  23.318  1.00  0.00    -0.384 N 
ATOM    134  H41   C A   6     -26.633   8.269  23.107  1.00  0.00     0.157 HD
ATOM    135  H42   C A   6     -27.296   6.705  22.681  1.00  0.00     0.157 HD
ATOM    136  C5    C A   6     -25.523   7.530  25.348  1.00  0.00     0.067 A 
ATOM    137  C2'   C A   6     -23.860   3.665  27.430  1.00  0.00     0.199 C 
ATOM    138  O2'   C A   6     -23.719   2.832  28.567  1.00  0.00    -0.388 OA
ATOM    139 'HO2   C A   6     -22.793   2.841  28.805  1.00  0.00     0.210 HD
ATOM    140  C3'   C A   6     -22.549   4.344  27.066  1.00  0.00     0.198 C 
ATOM    141  O3'   C A   6     -21.456   3.430  27.062  1.00  0.00    -0.279 OA
ATOM    142  P     G A   7     -20.768   3.024  25.666  1.00  0.00     0.408 P 
ATOM    143  OP1   G A   7     -21.846   2.942  24.646  1.00  0.00    -0.624 OA
ATOM    144  OP2   G A   7     -19.628   3.951  25.454  1.00  0.00    -0.624 OA
ATOM    145  O5'   G A   7     -20.204   1.553  25.913  1.00  0.00    -0.287 OA
ATOM    146  C5'   G A   7     -20.129   0.597  24.850  1.00  0.00     0.216 C 
ATOM    147  C4'   G A   7     -18.685   0.331  24.486  1.00  0.00     0.180 C 
ATOM    148  O4'   G A   7     -18.580   0.258  23.036  1.00  0.00    -0.353 OA
ATOM    149  C1'   G A   7     -17.803   1.337  22.578  1.00  0.00     0.262 C 
ATOM    150  N9    G A   7     -18.711   2.437  22.269  1.00  0.00    -0.293 N 
ATOM    151  C4    G A   7     -19.809   2.357  21.455  1.00  0.00     0.187 A 
ATOM    152  N3    G A   7     -20.220   1.256  20.793  1.00  0.00    -0.044 NA
ATOM    153  C2    G A   7     -21.311   1.481  20.092  1.00  0.00     0.703 A 
ATOM    154  N2    G A   7     -21.841   0.490  19.380  1.00  0.00    -0.233 N 
ATOM    155  H21   G A   7     -21.396  -0.415  19.390  1.00  0.00     0.174 HD
ATOM    156  H22   G A   7     -22.682   0.639  18.839  1.00  0.00     0.174 HD
ATOM    157  N1    G A   7     -21.957   2.691  20.041  1.00  0.00    -0.153 N 
ATOM    158  H1    G A   7     -22.789   2.755  19.473  1.00  0.00     0.187 HD
ATOM    159  C6    G A   7     -21.554   3.840  20.715  1.00  0.00     0.292 A 
ATOM    160  O6    G A   7     -22.214   4.880  20.603  1.00  0.00    -0.265 OA
ATOM    161  C5    G A   7     -20.374   3.613  21.473  1.00  0.00     0.173 A 
ATOM    162  N7    G A   7     -19.640   4.471  22.280  1.00  0.00    -0.234 NA
ATOM    163  C8    G A   7     -18.663   3.731  22.727  1.00  0.00     0.214 A 
ATOM    164  C2'   G A   7     -16.803   1.598  23.698  1.00  0.00     0.199 C 
ATOM    165  O2'   G A   7     -15.798   0.605  23.634  1.00  0.00    -0.388 OA
ATOM    166 'HO2   G A   7     -16.228  -0.243  23.761  1.00  0.00     0.210 HD
ATOM    167  C3'   G A   7     -17.697   1.415  24.922  1.00  0.00     0.198 C 
ENDROOT
BRANCH 167 168
ATOM    168  O3'   G A   7     -16.982   1.007  26.082  1.00  0.00    -0.279 OA
BRANCH 168 169
ATOM    169  P     T A   8     -16.690   2.074  27.252  1.00  0.00     0.408 P 
ATOM    170  OP2   T A   8     -15.379   1.746  27.867  1.00  0.00    -0.624 OA
ATOM    171  OP1   T A   8     -17.903   2.153  28.105  1.00  0.00    -0.624 OA
BRANCH 169 172
ATOM    172  O5'   T A   8     -16.541   3.460  26.481  1.00  0.00    -0.287 OA
BRANCH 172 173
ATOM    173  C5'   T A   8     -15.254   4.009  26.206  1.00  0.00     0.216 C 
BRANCH 173 174
ATOM    174  C4'   T A   8     -15.395   5.342  25.513  1.00  0.00     0.180 C 
ATOM    175  O4'   T A   8     -16.742   5.844  25.729  1.00  0.00    -0.353 OA
ATOM    176  C1'   T A   8     -16.700   7.240  25.968  1.00  0.00     0.264 C 
ATOM    177  C2'   T A   8     -15.270   7.705  25.693  1.00  0.00     0.199 C 
ATOM    178  N1    T A   8     -17.146   7.490  27.347  1.00  0.00    -0.280 N 
ATOM    179  C3'   T A   8     -14.485   6.445  26.035  1.00  0.00     0.198 C 
ATOM    180  C6    T A   8     -16.710   6.704  28.390  1.00  0.00     0.104 A 
ATOM    181  C2    T A   8     -18.015   8.544  27.565  1.00  0.00     0.331 A 
ATOM    182  C5    T A   8     -17.088   6.919  29.653  1.00  0.00     0.092 A 
ATOM    183  C4    T A   8     -17.979   7.991  29.961  1.00  0.00     0.250 A 
ATOM    184  N3    T A   8     -18.382   8.731  28.873  1.00  0.00    -0.275 N 
ATOM    185  O4    T A   8     -18.376   8.302  31.084  1.00  0.00    -0.268 OA
ATOM    186  H3    T A   8     -19.024   9.485  29.062  1.00  0.00     0.173 HD
ATOM    187  O2    T A   8     -18.427   9.261  26.669  1.00  0.00    -0.246 OA
BRANCH 177 188
ATOM    188  O2'   T A   8     -15.153   8.028  24.320  1.00  0.00    -0.388 OA
ATOM    189 'HO2   T A   8     -14.284   8.413  24.200  1.00  0.00     0.210 HD
ENDBRANCH 177 188
BRANCH 179 190
ATOM    190  O3'   T A   8     -13.206   6.402  25.406  1.00  0.00    -0.279 OA
BRANCH 190 191
ATOM    191  P     G A   9     -11.889   6.092  26.279  1.00  0.00     0.408 P 
ATOM    192  OP1   G A   9     -11.070   5.123  25.506  1.00  0.00    -0.624 OA
ATOM    193  OP2   G A   9     -12.281   5.769  27.675  1.00  0.00    -0.624 OA
BRANCH 191 194
ATOM    194  O5'   G A   9     -11.111   7.482  26.291  1.00  0.00    -0.287 OA
BRANCH 194 195
ATOM    195  C5'   G A   9     -11.808   8.713  26.101  1.00  0.00     0.216 C 
BRANCH 195 196
ATOM    196  C4'   G A   9     -11.591   9.625  27.285  1.00  0.00     0.180 C 
ATOM    197  O4'   G A   9     -11.931   8.915  28.504  1.00  0.00    -0.353 OA
ATOM    198  C1'   G A   9     -11.094   9.357  29.558  1.00  0.00     0.262 C 
ATOM    199  C2'   G A   9     -10.167  10.437  28.997  1.00  0.00     0.199 C 
ATOM    200  N9    G A   9     -10.378   8.205  30.093  1.00  0.00    -0.293 N 
ATOM    201  C3'   G A   9     -10.158  10.079  27.516  1.00  0.00     0.198 C 
ATOM    202  O3'   G A   9      -9.817  11.189  26.689  1.00  0.00    -0.279 OA
ATOM    203  P     G A  10      -8.355  11.266  26.020  1.00  0.00     0.408 P 
ATOM    204  OP2   G A  10      -8.174  10.074  25.153  1.00  0.00    -0.624 OA
ATOM    205  OP1   G A  10      -8.213  12.625  25.438  1.00  0.00    -0.624 OA
ATOM    206  O5'   G A  10      -7.353  11.145  27.255  1.00  0.00    -0.287 OA
ATOM    207  C8    G A   9      -9.657   7.274  29.385  1.00  0.00     0.214 A 
ATOM    208  C4    G A   9     -10.289   7.839  31.414  1.00  0.00     0.187 A 
ATOM    209  N7    G A   9      -9.119   6.355  30.140  1.00  0.00    -0.234 NA
ATOM    210  C5    G A   9      -9.510   6.703  31.428  1.00  0.00     0.173 A 
ATOM    211  C6    G A   9      -9.234   6.082  32.676  1.00  0.00     0.292 A 
ATOM    212  N1    G A   9      -9.832   6.764  33.730  1.00  0.00    -0.153 N 
ATOM    213  O6    G A   9      -8.565   5.070  32.904  1.00  0.00    -0.265 OA
ATOM    214  H1    G A   9      -9.685   6.388  34.654  1.00  0.00     0.187 HD
ATOM    215  C2    G A   9     -10.595   7.897  33.605  1.00  0.00     0.703 A 
ATOM    216  N3    G A   9     -10.858   8.487  32.455  1.00  0.00    -0.044 NA
ATOM    217  N2    G A   9     -11.086   8.406  34.736  1.00  0.00    -0.233 N 
ATOM    218  H22   G A   9     -10.905   7.967  35.627  1.00  0.00     0.174 HD
ATOM    219  H21   G A   9     -11.655   9.239  34.684  1.00  0.00     0.174 HD
BRANCH 199 220
ATOM    220  O2'   G A   9     -10.759  11.705  29.209  1.00  0.00    -0.388 OA
ATOM    221 'HO2   G A   9     -11.691  11.540  29.351  1.00  0.00     0.210 HD
ENDBRANCH 199 220
BRANCH 206 222
ATOM    222  C5'   G A  10      -7.234  12.198  28.211  1.00  0.00     0.216 C 
BRANCH 222 223
ATOM    223  C4'   G A  10      -5.862  12.832  28.130  1.00  0.00     0.180 C 
ATOM    224  O4'   G A  10      -5.918  14.184  28.653  1.00  0.00    -0.353 OA
ATOM    225  C1'   G A  10      -4.676  14.516  29.249  1.00  0.00     0.262 C 
ATOM    226  C2'   G A  10      -3.763  13.291  29.144  1.00  0.00     0.199 C 
ATOM    227  C3'   G A  10      -4.779  12.166  28.967  1.00  0.00     0.198 C 
BRANCH 225 228
ATOM    228  N9    G A  10      -4.923  14.950  30.622  1.00  0.00    -0.293 N 
ATOM    229  C4    G A  10      -4.089  15.717  31.399  1.00  0.00     0.187 A 
ATOM    230  N3    G A  10      -2.886  16.204  31.030  1.00  0.00    -0.044 NA
ATOM    231  C5    G A  10      -4.745  15.867  32.604  1.00  0.00     0.173 A 
ATOM    232  C2    G A  10      -2.319  16.905  31.995  1.00  0.00     0.703 A 
ATOM    233  N1    G A  10      -2.886  17.116  33.227  1.00  0.00    -0.153 N 
ATOM    234  N2    G A  10      -1.121  17.459  31.798  1.00  0.00    -0.233 N 
ATOM    235  C6    G A  10      -4.122  16.625  33.632  1.00  0.00     0.292 A 
ATOM    236  H1    G A  10      -2.363  17.670  33.887  1.00  0.00     0.187 HD
ATOM    237  O6    G A  10      -4.539  16.874  34.771  1.00  0.00    -0.265 OA
ATOM    238  H21   G A  10      -0.660  17.334  30.909  1.00  0.00     0.174 HD
ATOM    239  H22   G A  10      -0.680  18.000  32.529  1.00  0.00     0.174 HD
ATOM    240  N7    G A  10      -5.967  15.206  32.585  1.00  0.00    -0.234 NA
ATOM    241  C8    G A  10      -6.029  14.680  31.393  1.00  0.00     0.214 A 
ENDBRANCH 225 228
BRANCH 226 242
ATOM    242  O2'   G A  10      -2.952  13.429  27.993  1.00  0.00    -0.388 OA
ATOM    243 'HO2   G A  10      -2.138  13.842  28.280  1.00  0.00     0.210 HD
ENDBRANCH 226 242
BRANCH 227 244
ATOM    244  O3'   G A  10      -4.229  11.030  28.300  1.00  0.00    -0.279 OA
BRANCH 244 245
ATOM    245  P     C A  11      -4.152  11.003  26.693  1.00  0.00     0.408 P 
ATOM    246  OP2   C A  11      -4.950   9.853  26.197  1.00  0.00    -0.624 OA
ATOM    247  OP1   C A  11      -4.469  12.374  26.216  1.00  0.00    -0.624 OA
BRANCH 245 248
ATOM    248  O5'   C A  11      -2.616  10.714  26.388  1.00  0.00    -0.287 OA
BRANCH 248 249
ATOM    249  C5'   C A  11      -1.715  11.779  26.092  1.00  0.00     0.216 C 
BRANCH 249 250
ATOM    250  C4'   C A  11      -1.192  11.646  24.681  1.00  0.00     0.180 C 
ATOM    251  O4'   C A  11       0.092  10.972  24.716  1.00  0.00    -0.353 OA
ATOM    252  C1'   C A  11       0.246  10.185  23.547  1.00  0.00     0.264 C 
ATOM    253  C2'   C A  11      -1.017  10.350  22.698  1.00  0.00     0.199 C 
ATOM    254  C3'   C A  11      -2.033  10.791  23.745  1.00  0.00     0.198 C 
BRANCH 252 255
ATOM    255  N1    C A  11       0.504   8.794  23.951  1.00  0.00    -0.278 N 
ATOM    256  C2    C A  11       1.729   8.484  24.543  1.00  0.00     0.352 A 
ATOM    257  O2    C A  11       2.557   9.388  24.717  1.00  0.00    -0.244 OA
ATOM    258  N3    C A  11       1.983   7.211  24.914  1.00  0.00    -0.177 NA
ATOM    259  C4    C A  11       1.066   6.265  24.714  1.00  0.00     0.128 A 
ATOM    260  N4    C A  11       1.363   5.023  25.096  1.00  0.00    -0.384 N 
ATOM    261  C5    C A  11      -0.196   6.549  24.114  1.00  0.00     0.067 A 
ATOM    262  H41   C A  11       0.699   4.275  24.965  1.00  0.00     0.157 HD
ATOM    263  H42   C A  11       2.261   4.835  25.521  1.00  0.00     0.157 HD
ATOM    264  C6    C A  11      -0.432   7.817  23.752  1.00  0.00     0.102 A 
ENDBRANCH 252 255
BRANCH 253 265
ATOM    265  O2'   C A  11      -0.784  11.372  21.746  1.00  0.00    -0.388 OA
ATOM    266 'HO2   C A  11      -0.347  10.962  21.000  1.00  0.00     0.210 HD
ENDBRANCH 253 265
BRANCH 254 267
ATOM    267  O3'   C A  11      -3.111  11.534  23.179  1.00  0.00    -0.279 OA
BRANCH 267 268
ATOM    268  P     G A  12      -2.868  13.043  22.680  1.00  0.00     0.408 P 
ATOM    269  OP2   G A  12      -1.590  13.536  23.258  1.00  0.00    -0.624 OA
ATOM    270  OP1   G A  12      -3.056  13.050  21.207  1.00  0.00    -0.624 OA
BRANCH 268 271
ATOM    271  O5'   G A  12      -4.074  13.862  23.328  1.00  0.00    -0.287 OA
BRANCH 271 272
ATOM    272  C5'   G A  12      -5.433  13.535  23.036  1.00  0.00     0.216 C 
BRANCH 272 273
ATOM    273  C4'   G A  12      -6.362  14.450  23.802  1.00  0.00     0.180 C 
ATOM    274  O4'   G A  12      -5.600  15.145  24.825  1.00  0.00    -0.353 OA
ATOM    275  C1'   G A  12      -6.094  16.465  24.974  1.00  0.00     0.262 C 
ATOM    276  N9    G A  12      -5.016  17.400  24.670  1.00  0.00    -0.293 N 
ATOM    277  C2'   G A  12      -7.307  16.613  24.055  1.00  0.00     0.199 C 
ATOM    278  C4    G A  12      -5.109  18.770  24.637  1.00  0.00     0.187 A 
ATOM    279  C8    G A  12      -3.713  17.094  24.358  1.00  0.00     0.214 A 
ATOM    280  N3    G A  12      -6.220  19.495  24.884  1.00  0.00    -0.044 NA
ATOM    281  C5    G A  12      -3.848  19.216  24.302  1.00  0.00     0.173 A 
ATOM    282  C2    G A  12      -5.997  20.791  24.776  1.00  0.00     0.703 A 
ATOM    283  N1    G A  12      -4.784  21.338  24.447  1.00  0.00    -0.153 N 
ATOM    284  N2    G A  12      -6.993  21.654  24.991  1.00  0.00    -0.233 N 
ATOM    285  C6    G A  12      -3.627  20.614  24.185  1.00  0.00     0.292 A 
ATOM    286  H1    G A  12      -4.722  22.343  24.391  1.00  0.00     0.187 HD
ATOM    287  O6    G A  12      -2.583  21.209  23.892  1.00  0.00    -0.265 OA
ATOM    288  H22   G A  12      -6.834  22.647  24.921  1.00  0.00     0.174 HD
ATOM    289  H21   G A  12      -7.908  21.302  25.237  1.00  0.00     0.174 HD
ATOM    290  N7    G A  12      -2.978  18.147  24.130  1.00  0.00    -0.234 NA
ATOM    291  C3'   G A  12      -7.001  15.567  22.988  1.00  0.00     0.198 C 
BRANCH 277 292
ATOM    292  O2'   G A  12      -8.472  16.278  24.784  1.00  0.00    -0.388 OA
ATOM    293 'HO2   G A  12      -8.704  15.381  24.541  1.00  0.00     0.210 HD
ENDBRANCH 277 292
BRANCH 291 294
ATOM    294  O3'   G A  12      -8.175  15.122  22.312  1.00  0.00    -0.279 OA
BRANCH 294 295
ATOM    295  P     T A  13      -8.200  15.071  20.704  1.00  0.00     0.408 P 
ATOM    296  OP2   T A  13      -6.943  14.431  20.237  1.00  0.00    -0.624 OA
ATOM    297  OP1   T A  13      -9.509  14.500  20.296  1.00  0.00    -0.624 OA
BRANCH 295 298
ATOM    298  O5'   T A  13      -8.165  16.603  20.268  1.00  0.00    -0.287 OA
BRANCH 298 299
ATOM    299  C5'   T A  13      -8.909  17.062  19.141  1.00  0.00     0.216 C 
BRANCH 299 300
ATOM    300  C4'   T A  13      -7.979  17.645  18.102  1.00  0.00     0.180 C 
ATOM    301  O4'   T A  13      -8.630  18.786  17.474  1.00  0.00    -0.353 OA
ATOM    302  C1'   T A  13      -7.690  19.833  17.297  1.00  0.00     0.264 C 
ATOM    303  N1    T A  13      -8.058  20.946  18.185  1.00  0.00    -0.280 N 
ATOM    304  C2'   T A  13      -6.310  19.249  17.590  1.00  0.00     0.199 C 
ATOM    305  C6    T A  13      -8.956  20.775  19.215  1.00  0.00     0.104 A 
ATOM    306  C2    T A  13      -7.466  22.174  17.954  1.00  0.00     0.331 A 
ATOM    307  C5    T A  13      -9.299  21.770  20.038  1.00  0.00     0.092 A 
ATOM    308  C4    T A  13      -8.727  23.069  19.865  1.00  0.00     0.250 A 
ATOM    309  O4    T A  13      -8.962  24.062  20.553  1.00  0.00    -0.268 OA
ATOM    310  N3    T A  13      -7.840  23.169  18.819  1.00  0.00    -0.275 N 
ATOM    311  H3    T A  13      -7.413  24.071  18.669  1.00  0.00     0.173 HD
ATOM    312  O2    T A  13      -6.671  22.367  17.053  1.00  0.00    -0.246 OA
ATOM    313  C3'   T A  13      -6.664  18.200  18.635  1.00  0.00     0.198 C 
ATOM    314  O2'   T A  13      -5.809  18.649  16.411  1.00  0.00    -0.388 OA
ATOM    315  O3'   T A  13      -5.667  17.188  18.750  1.00  0.00    -0.279 OA
ATOM    316  P     C A  14      -4.524  17.316  19.874  1.00  0.00     0.408 P 
ATOM    317  OP2   C A  14      -5.154  17.788  21.133  1.00  0.00    -0.624 OA
ATOM    318  OP1   C A  14      -3.755  16.045  19.870  1.00  0.00    -0.624 OA
ATOM    319  O5'   C A  14      -3.574  18.475  19.331  1.00  0.00    -0.287 OA
ATOM    320  C5'   C A  14      -2.748  18.271  18.185  1.00  0.00     0.216 C 
ATOM    321  C4'   C A  14      -2.052  19.559  17.805  1.00  0.00     0.180 C 
ATOM    322  O4'   C A  14      -3.049  20.593  17.588  1.00  0.00    -0.353 OA
ATOM    323  C3'   C A  14      -1.130  20.149  18.861  1.00  0.00     0.198 C 
ATOM    324  C1'   C A  14      -2.543  21.843  18.025  1.00  0.00     0.264 C 
ATOM    325  N1    C A  14      -3.423  22.356  19.090  1.00  0.00    -0.278 N 
ATOM    326  C2'   C A  14      -1.099  21.622  18.477  1.00  0.00     0.199 C 
ATOM    327  C6    C A  14      -4.308  21.530  19.727  1.00  0.00     0.102 A 
ATOM    328  C2    C A  14      -3.342  23.707  19.440  1.00  0.00     0.352 A 
ATOM    329  C5    C A  14      -5.115  21.993  20.690  1.00  0.00     0.067 A 
ATOM    330  C4    C A  14      -5.011  23.375  21.024  1.00  0.00     0.128 A 
ATOM    331  N3    C A  14      -4.149  24.188  20.412  1.00  0.00    -0.177 NA
ATOM    332  N4    C A  14      -5.788  23.895  21.973  1.00  0.00    -0.384 N 
ATOM    333  H42   C A  14      -5.704  24.875  22.205  1.00  0.00     0.157 HD
ATOM    334  H41   C A  14      -6.455  23.316  22.462  1.00  0.00     0.157 HD
ATOM    335  O2    C A  14      -2.529  24.435  18.852  1.00  0.00    -0.244 OA
ATOM    336  O2'   C A  14      -0.242  21.847  17.373  1.00  0.00    -0.388 OA
ATOM    337 'HO2   C A  14       0.314  21.073  17.289  1.00  0.00     0.210 HD
ATOM    338  O3'   C A  14       0.163  19.549  18.825  1.00  0.00    -0.279 OA
ATOM    339  P     T A  15       1.138  19.674  20.100  1.00  0.00     0.408 P 
ATOM    340  OP2   T A  15       0.345  19.405  21.326  1.00  0.00    -0.624 OA
ATOM    341  O5'   T A  15       1.566  21.208  20.110  1.00  0.00    -0.287 OA
ATOM    342  OP1   T A  15       2.346  18.857  19.813  1.00  0.00    -0.624 OA
ATOM    343  C5'   T A  15       2.360  21.758  19.059  1.00  0.00     0.216 C 
ATOM    344  C4'   T A  15       2.831  23.144  19.431  1.00  0.00     0.180 C 
ATOM    345  C3'   T A  15       3.343  23.306  20.855  1.00  0.00     0.198 C 
ATOM    346  O4'   T A  15       1.709  24.066  19.346  1.00  0.00    -0.353 OA
ATOM    347  O3'   T A  15       4.712  22.927  20.971  1.00  0.00    -0.279 OA
ATOM    348  C2'   T A  15       3.119  24.790  21.111  1.00  0.00     0.199 C 
ATOM    349  P     G A  16       5.268  22.360  22.370  1.00  0.00     0.408 P 
ATOM    350  O5'   G A  16       5.306  23.641  23.318  1.00  0.00    -0.287 OA
ATOM    351  OP2   G A  16       4.274  21.403  22.921  1.00  0.00    -0.624 OA
ATOM    352  OP1   G A  16       6.666  21.913  22.140  1.00  0.00    -0.624 OA
ATOM    353  C5'   G A  16       6.375  24.582  23.238  1.00  0.00     0.216 C 
ATOM    354  C4'   G A  16       6.039  25.826  24.027  1.00  0.00     0.180 C 
ATOM    355  C3'   G A  16       6.020  25.665  25.540  1.00  0.00     0.198 C 
ATOM    356  O4'   G A  16       4.688  26.249  23.706  1.00  0.00    -0.353 OA
ATOM    357  C2'   G A  16       5.124  26.818  25.977  1.00  0.00     0.199 C 
ATOM    358  O3'   G A  16       7.329  25.752  26.097  1.00  0.00    -0.279 OA
ATOM    359  O2'   G A  16       5.830  28.044  25.965  1.00  0.00    -0.388 OA
ATOM    360  C1'   G A  16       4.091  26.839  24.849  1.00  0.00     0.262 C 
ATOM    361 'HO2   G A  16       6.759  27.827  26.052  1.00  0.00     0.210 HD
ATOM    362  N9    G A  16       2.869  26.103  25.164  1.00  0.00    -0.293 N 
ATOM    363  C4    G A  16       1.875  26.503  26.025  1.00  0.00     0.187 A 
ATOM    364  C8    G A  16       2.481  24.884  24.666  1.00  0.00     0.214 A 
ATOM    365  N3    G A  16       1.857  27.648  26.738  1.00  0.00    -0.044 NA
ATOM    366  C5    G A  16       0.933  25.497  25.989  1.00  0.00     0.173 A 
ATOM    367  C2    G A  16       0.768  27.752  27.476  1.00  0.00     0.703 A 
ATOM    368  N1    G A  16      -0.228  26.810  27.513  1.00  0.00    -0.153 N 
ATOM    369  N2    G A  16       0.591  28.826  28.249  1.00  0.00    -0.233 N 
ATOM    370  H1    G A  16      -1.021  26.989  28.111  1.00  0.00     0.187 HD
ATOM    371  C6    G A  16      -0.232  25.624  26.788  1.00  0.00     0.292 A 
ATOM    372  O6    G A  16      -1.183  24.841  26.895  1.00  0.00    -0.265 OA
ATOM    373  H22   G A  16      -0.237  28.916  28.821  1.00  0.00     0.174 HD
ATOM    374  H21   G A  16       1.295  29.549  28.258  1.00  0.00     0.174 HD
ATOM    375  N7    G A  16       1.328  24.482  25.126  1.00  0.00    -0.234 NA
ATOM    376  P     A A  17       7.641  25.061  27.517  1.00  0.00     0.408 P 
ATOM    377  O5'   A A  17       6.708  25.846  28.544  1.00  0.00    -0.287 OA
ATOM    378  OP1   A A  17       9.056  25.363  27.853  1.00  0.00    -0.624 OA
ATOM    379  OP2   A A  17       7.186  23.649  27.462  1.00  0.00    -0.624 OA
ATOM    380  C5'   A A  17       6.937  27.223  28.841  1.00  0.00     0.216 C 
ATOM    381  C4'   A A  17       6.082  27.655  30.010  1.00  0.00     0.180 C 
ATOM    382  O4'   A A  17       4.709  27.802  29.566  1.00  0.00    -0.353 OA
ATOM    383  C3'   A A  17       5.990  26.666  31.161  1.00  0.00     0.198 C 
ATOM    384  C1'   A A  17       3.829  27.468  30.625  1.00  0.00     0.262 C 
ATOM    385  C2'   A A  17       4.678  27.061  31.832  1.00  0.00     0.199 C 
ATOM    386  N9    A A  17       2.926  26.417  30.158  1.00  0.00    -0.294 N 
ATOM    387  O2'   A A  17       4.852  28.192  32.663  1.00  0.00    -0.388 OA
ATOM    388 'HO2   A A  17       5.791  28.264  32.837  1.00  0.00     0.210 HD
ATOM    389  C4    A A  17       1.677  26.140  30.660  1.00  0.00     0.167 A 
ATOM    390  C8    A A  17       3.132  25.513  29.146  1.00  0.00     0.214 A 
ATOM    391  N3    A A  17       1.047  26.767  31.668  1.00  0.00    -0.222 NA
ATOM    392  C5    A A  17       1.196  25.081  29.911  1.00  0.00     0.149 A 
ATOM    393  C2    A A  17      -0.153  26.230  31.876  1.00  0.00     0.237 A 
ATOM    394  N1    A A  17      -0.750  25.214  31.239  1.00  0.00    -0.222 NA
ATOM    395  C6    A A  17      -0.087  24.605  30.233  1.00  0.00     0.155 A 
ATOM    396  N6    A A  17      -0.683  23.592  29.601  1.00  0.00    -0.382 N 
ATOM    397  H62   A A  17      -1.607  23.296  29.880  1.00  0.00     0.157 HD
ATOM    398  H61   A A  17      -0.207  23.123  28.845  1.00  0.00     0.157 HD
ATOM    399  N7    A A  17       2.127  24.693  28.956  1.00  0.00    -0.236 NA
ATOM    400  O3'   A A  17       7.106  26.783  32.041  1.00  0.00    -0.279 OA
ATOM    401  P     C A  18       7.709  25.470  32.749  1.00  0.00     0.408 P 
ATOM    402  O5'   C A  18       6.564  25.013  33.758  1.00  0.00    -0.287 OA
ATOM    403  OP2   C A  18       7.864  24.409  31.720  1.00  0.00    -0.624 OA
ATOM    404  OP1   C A  18       8.886  25.897  33.546  1.00  0.00    -0.624 OA
ATOM    405  C5'   C A  18       6.077  25.896  34.769  1.00  0.00     0.216 C 
ATOM    406  C4'   C A  18       4.785  25.365  35.345  1.00  0.00     0.180 C 
ATOM    407  C3'   C A  18       4.829  23.914  35.808  1.00  0.00     0.198 C 
ATOM    408  O4'   C A  18       3.766  25.397  34.309  1.00  0.00    -0.353 OA
ATOM    409  C2'   C A  18       3.386  23.458  35.632  1.00  0.00     0.199 C 
ATOM    410  O3'   C A  18       5.267  23.817  37.162  1.00  0.00    -0.279 OA
ATOM    411  C1'   C A  18       2.982  24.220  34.369  1.00  0.00     0.264 C 
ATOM    412  O2'   C A  18       2.579  23.897  36.708  1.00  0.00    -0.388 OA
ATOM    413  N1    C A  18       3.189  23.463  33.124  1.00  0.00    -0.278 N 
ATOM    414  C2    C A  18       2.075  22.971  32.438  1.00  0.00     0.352 A 
ATOM    415  C6    C A  18       4.449  23.241  32.640  1.00  0.00     0.102 A 
ATOM    416  O2    C A  18       0.944  23.191  32.894  1.00  0.00    -0.244 OA
ATOM    417  N3    C A  18       2.257  22.269  31.298  1.00  0.00    -0.177 NA
ATOM    418  C4    C A  18       3.491  22.055  30.837  1.00  0.00     0.128 A 
ATOM    419  C5    C A  18       4.644  22.548  31.512  1.00  0.00     0.067 A 
ATOM    420  N4    C A  18       3.621  21.355  29.712  1.00  0.00    -0.384 N 
ATOM    421  H41   C A  18       4.538  21.169  29.331  1.00  0.00     0.157 HD
ATOM    422  H42   C A  18       2.797  21.010  29.240  1.00  0.00     0.157 HD
ATOM    423 'HO2   C A  18       3.175  24.140  37.416  1.00  0.00     0.210 HD
ATOM    424  P     T A  19       6.316  22.672  37.584  1.00  0.00     0.408 P 
ATOM    425  O5'   T A  19       5.400  21.405  37.893  1.00  0.00    -0.287 OA
ATOM    426  OP1   T A  19       6.948  23.103  38.857  1.00  0.00    -0.624 OA
ATOM    427  OP2   T A  19       7.173  22.353  36.412  1.00  0.00    -0.624 OA
ATOM    428  C1'   T A  15       1.782  25.006  20.404  1.00  0.00     0.264 C 
ATOM    429  O2'   T A  15       4.106  25.579  20.473  1.00  0.00    -0.388 OA
ATOM    430  N1    T A  15       0.617  24.813  21.280  1.00  0.00    -0.280 N 
ATOM    431  C2    T A  15       0.146  25.909  21.979  1.00  0.00     0.331 A 
ATOM    432  C6    T A  15       0.016  23.580  21.407  1.00  0.00     0.104 A 
ATOM    433  N3    T A  15      -0.935  25.662  22.783  1.00  0.00    -0.275 N 
ATOM    434  O2    T A  15       0.647  27.016  21.893  1.00  0.00    -0.246 OA
ATOM    435  H3    T A  15      -1.289  26.447  23.311  1.00  0.00     0.173 HD
ATOM    436  C4    T A  15      -1.584  24.463  22.956  1.00  0.00     0.250 A 
ATOM    437  O4    T A  15      -2.555  24.405  23.712  1.00  0.00    -0.268 OA
ATOM    438  C5    T A  15      -1.041  23.378  22.200  1.00  0.00     0.092 A 
ATOM    439 'HO2   T A  15       4.827  25.677  21.096  1.00  0.00     0.210 HD
ATOM    440 'HO2   T A  13      -5.394  17.828  16.675  1.00  0.00     0.210 HD
BRANCH 425 441
ATOM    441  C5'   T A  19       5.965  20.098  37.993  1.00  0.00     0.216 C 
BRANCH 441 442
ATOM    442  C4'   T A  19       5.503  19.239  36.839  1.00  0.00     0.180 C 
ATOM    443  O4'   T A  19       6.443  18.143  36.665  1.00  0.00    -0.353 OA
ATOM    444  C1'   T A  19       5.741  16.933  36.450  1.00  0.00     0.264 C 
ATOM    445  C2'   T A  19       4.267  17.280  36.245  1.00  0.00     0.199 C 
ATOM    446  C3'   T A  19       4.145  18.577  37.038  1.00  0.00     0.198 C 
BRANCH 444 447
ATOM    447  N1    T A  19       5.994  16.045  37.594  1.00  0.00    -0.280 N 
ATOM    448  C2    T A  19       7.139  15.271  37.566  1.00  0.00     0.331 A 
ATOM    449  O2    T A  19       7.928  15.288  36.638  1.00  0.00    -0.246 OA
ATOM    450  N3    T A  19       7.325  14.472  38.664  1.00  0.00    -0.275 N 
ATOM    451  H3    T A  19       8.159  13.907  38.671  1.00  0.00     0.173 HD
ATOM    452  C4    T A  19       6.500  14.365  39.761  1.00  0.00     0.250 A 
ATOM    453  O4    T A  19       6.811  13.608  40.680  1.00  0.00    -0.268 OA
ATOM    454  C5    T A  19       5.335  15.192  39.712  1.00  0.00     0.092 A 
ATOM    455  C6    T A  19       5.123  15.985  38.659  1.00  0.00     0.104 A 
ENDBRANCH 444 447
BRANCH 445 456
ATOM    456  O2'   T A  19       4.041  17.500  34.865  1.00  0.00    -0.388 OA
ATOM    457 'HO2   T A  19       4.126  16.648  34.435  1.00  0.00     0.210 HD
ENDBRANCH 445 456
BRANCH 446 458
ATOM    458  O3'   T A  19       3.095  19.409  36.554  1.00  0.00    -0.279 OA
BRANCH 458 459
ATOM    459  P     C A  20       1.937  19.900  37.557  1.00  0.00     0.408 P 
ATOM    460  OP2   C A  20       2.510  20.005  38.923  1.00  0.00    -0.624 OA
ATOM    461  OP1   C A  20       1.292  21.086  36.938  1.00  0.00    -0.624 OA
BRANCH 459 462
ATOM    462  O5'   C A  20       0.890  18.700  37.540  1.00  0.00    -0.287 OA
BRANCH 462 463
ATOM    463  C5'   C A  20       0.971  17.634  38.484  1.00  0.00     0.216 C 
ATOM    464  C4'   C A  20      -0.326  16.859  38.502  1.00  0.00     0.180 C 
ATOM    465  C3'   C A  20      -0.992  16.684  37.143  1.00  0.00     0.198 C 
ATOM    466  O4'   C A  20      -1.294  17.590  39.304  1.00  0.00    -0.353 OA
ATOM    467  C2'   C A  20      -2.470  16.593  37.502  1.00  0.00     0.199 C 
ATOM    468  C1'   C A  20      -2.553  17.591  38.657  1.00  0.00     0.264 C 
ATOM    469  N1    C A  20      -2.857  18.969  38.233  1.00  0.00    -0.278 N 
ATOM    470  C2    C A  20      -4.174  19.429  38.326  1.00  0.00     0.352 A 
ATOM    471  C6    C A  20      -1.872  19.788  37.756  1.00  0.00     0.102 A 
ATOM    472  O2    C A  20      -5.047  18.667  38.763  1.00  0.00    -0.244 OA
ATOM    473  N3    C A  20      -4.460  20.693  37.939  1.00  0.00    -0.177 NA
ATOM    474  C4    C A  20      -3.493  21.483  37.474  1.00  0.00     0.128 A 
ATOM    475  C5    C A  20      -2.143  21.041  37.369  1.00  0.00     0.067 A 
ATOM    476  N4    C A  20      -3.825  22.720  37.105  1.00  0.00    -0.384 N 
ATOM    477  H42   C A  20      -4.786  23.020  37.187  1.00  0.00     0.157 HD
ATOM    478  H41   C A  20      -3.123  23.351  36.748  1.00  0.00     0.157 HD
BRANCH 465 479
ATOM    479  O3'   C A  20      -0.520  15.514  36.478  1.00  0.00    -0.279 OA
BRANCH 479 480
ATOM    480  P     C A  21       0.213  15.647  35.053  1.00  0.00     0.408 P 
ATOM    481  OP2   C A  21      -0.259  14.541  34.177  1.00  0.00    -0.624 OA
ATOM    482  OP1   C A  21       0.058  17.053  34.605  1.00  0.00    -0.624 OA
BRANCH 480 483
ATOM    483  O5'   C A  21       1.750  15.400  35.389  1.00  0.00    -0.287 OA
BRANCH 483 484
ATOM    484  C5'   C A  21       2.466  14.312  34.808  1.00  0.00     0.216 C 
BRANCH 484 485
ATOM    485  C4'   C A  21       3.481  13.775  35.786  1.00  0.00     0.180 C 
ATOM    486  C3'   C A  21       3.844  12.307  35.603  1.00  0.00     0.198 C 
ATOM    487  O3'   C A  21       4.897  12.145  34.656  1.00  0.00    -0.279 OA
ATOM    488  C2'   C A  21       4.256  11.891  37.009  1.00  0.00     0.199 C 
ATOM    489  P     A A  22       4.814  10.967  33.564  1.00  0.00     0.408 P 
ATOM    490  OP2   A A  22       3.498  11.054  32.882  1.00  0.00    -0.624 OA
ATOM    491  O5'   A A  22       4.840   9.633  34.434  1.00  0.00    -0.287 OA
ATOM    492  OP1   A A  22       6.061  11.021  32.760  1.00  0.00    -0.624 OA
ATOM    493  C5'   A A  22       5.982   9.290  35.219  1.00  0.00     0.216 C 
ATOM    494  C4'   A A  22       5.716   8.030  36.008  1.00  0.00     0.180 C 
ATOM    495  C3'   A A  22       5.014   6.914  35.246  1.00  0.00     0.198 C 
ATOM    496  O4'   A A  22       4.814   8.340  37.108  1.00  0.00    -0.353 OA
ATOM    497  O3'   A A  22       5.937   6.107  34.519  1.00  0.00    -0.279 OA
ATOM    498  C2'   A A  22       4.323   6.147  36.363  1.00  0.00     0.199 C 
ATOM    499  P     G A  23       5.492   5.448  33.122  1.00  0.00     0.408 P 
ATOM    500  OP2   G A  23       4.950   6.519  32.246  1.00  0.00    -0.624 OA
ATOM    501  OP1   G A  23       6.629   4.619  32.646  1.00  0.00    -0.624 OA
ATOM    502  C1'   A A  22       3.864   7.298  37.256  1.00  0.00     0.262 C 
ATOM    503  O2'   A A  22       5.244   5.349  37.082  1.00  0.00    -0.388 OA
ATOM    504  N9    A A  22       2.545   7.823  36.903  1.00  0.00    -0.294 N 
ATOM    505  C4    A A  22       1.332   7.247  37.193  1.00  0.00     0.167 A 
ATOM    506  C8    A A  22       2.256   8.980  36.222  1.00  0.00     0.214 A 
ATOM    507  N3    A A  22       1.112   6.096  37.851  1.00  0.00    -0.222 NA
ATOM    508  C5    A A  22       0.375   8.095  36.664  1.00  0.00     0.149 A 
ATOM    509  C2    A A  22      -0.193   5.849  37.942  1.00  0.00     0.237 A 
ATOM    510  N1    A A  22      -1.225   6.570  37.486  1.00  0.00    -0.222 NA
ATOM    511  C6    A A  22      -0.970   7.721  36.829  1.00  0.00     0.155 A 
ATOM    512  N6    A A  22      -1.997   8.438  36.375  1.00  0.00    -0.382 N 
ATOM    513  H61   A A  22      -1.827   9.303  35.881  1.00  0.00     0.157 HD
ATOM    514  H62   A A  22      -2.941   8.114  36.527  1.00  0.00     0.157 HD
ATOM    515  N7    A A  22       0.974   9.188  36.053  1.00  0.00    -0.236 NA
ATOM    516 'HO2   A A  22       5.983   5.189  36.494  1.00  0.00     0.210 HD
ATOM    517  C1'   C A  21       3.258  12.682  37.854  1.00  0.00     0.264 C 
ATOM    518  O2'   C A  21       5.564  12.337  37.312  1.00  0.00    -0.388 OA
ATOM    519  N1    C A  21       2.012  11.952  38.143  1.00  0.00    -0.278 N 
ATOM    520  O4'   C A  21       2.931  13.855  37.130  1.00  0.00    -0.353 OA
ATOM    521  C6    C A  21       0.855  12.246  37.477  1.00  0.00     0.102 A 
ATOM    522  C2    C A  21       2.029  10.945  39.113  1.00  0.00     0.352 A 
ATOM    523  C5    C A  21      -0.280  11.583  37.733  1.00  0.00     0.067 A 
ATOM    524  C4    C A  21      -0.231  10.562  38.726  1.00  0.00     0.128 A 
ATOM    525  N4    C A  21      -1.326   9.866  39.027  1.00  0.00    -0.384 N 
ATOM    526  N3    C A  21       0.892  10.268  39.383  1.00  0.00    -0.177 NA
ATOM    527  H41   C A  21      -2.196  10.057  38.552  1.00  0.00     0.157 HD
ATOM    528  H42   C A  21      -1.277   9.144  39.730  1.00  0.00     0.157 HD
ATOM    529  O2    C A  21       3.091  10.698  39.703  1.00  0.00    -0.244 OA
ATOM    530 'HO2   C A  21       5.973  12.574  36.478  1.00  0.00     0.210 HD
BRANCH 499 531
ATOM    531  O5'   G A  23       4.297   4.472  33.519  1.00  0.00    -0.287 OA
BRANCH 531 532
ATOM    532  C5'   G A  23       3.829   3.476  32.611  1.00  0.00     0.216 C 
BRANCH 532 533
ATOM    533  C4'   G A  23       4.237   2.101  33.085  1.00  0.00     0.180 C 
ATOM    534  C3'   G A  23       3.132   1.055  33.099  1.00  0.00     0.198 C 
ATOM    535  C2'   G A  23       3.638   0.061  34.136  1.00  0.00     0.199 C 
ATOM    536  C1'   G A  23       4.286   0.999  35.156  1.00  0.00     0.262 C 
ATOM    537  N9    G A  23       3.401   1.364  36.256  1.00  0.00    -0.293 N 
ATOM    538  O4'   G A  23       4.665   2.181  34.471  1.00  0.00    -0.353 OA
ATOM    539  C4    G A  23       2.890   0.515  37.208  1.00  0.00     0.187 A 
ATOM    540  C8    G A  23       2.910   2.613  36.550  1.00  0.00     0.214 A 
ATOM    541  N3    G A  23       3.120  -0.811  37.291  1.00  0.00    -0.044 NA
ATOM    542  C5    G A  23       2.114   1.307  38.027  1.00  0.00     0.173 A 
ATOM    543  C2    G A  23       2.487  -1.358  38.313  1.00  0.00     0.703 A 
ATOM    544  N2    G A  23       2.606  -2.669  38.540  1.00  0.00    -0.233 N 
ATOM    545  N1    G A  23       1.693  -0.662  39.187  1.00  0.00    -0.153 N 
ATOM    546  H21   G A  23       3.182  -3.222  37.921  1.00  0.00     0.174 HD
ATOM    547  H22   G A  23       2.123  -3.104  39.311  1.00  0.00     0.174 HD
ATOM    548  H1    G A  23       1.252  -1.173  39.935  1.00  0.00     0.187 HD
ATOM    549  C6    G A  23       1.441   0.703  39.123  1.00  0.00     0.292 A 
ATOM    550  O6    G A  23       0.708   1.233  39.965  1.00  0.00    -0.265 OA
ATOM    551  N7    G A  23       2.136   2.628  37.600  1.00  0.00    -0.234 NA
BRANCH 534 552
ATOM    552  O3'   G A  23       2.953   0.461  31.816  1.00  0.00    -0.279 OA
BRANCH 552 553
ATOM    553  P     A A  24       1.507   0.501  31.112  1.00  0.00     0.408 P 
ATOM    554  OP1   A A  24       0.668   1.458  31.879  1.00  0.00    -0.624 OA
ATOM    555  OP2   A A  24       1.036  -0.894  30.919  1.00  0.00    -0.624 OA
BRANCH 553 556
ATOM    556  O5'   A A  24       1.792   1.133  29.677  1.00  0.00    -0.287 OA
BRANCH 556 557
ATOM    557  C5'   A A  24       1.525   0.399  28.483  1.00  0.00     0.216 C 
BRANCH 557 558
ATOM    558  C4'   A A  24       0.609   1.189  27.578  1.00  0.00     0.180 C 
ATOM    559  C3'   A A  24       0.125   2.519  28.138  1.00  0.00     0.198 C 
ATOM    560  O3'   A A  24       1.057   3.566  27.881  1.00  0.00    -0.279 OA
ATOM    561  C2'   A A  24      -1.195   2.722  27.406  1.00  0.00     0.199 C 
ATOM    562  P     T A  25       1.161   4.810  28.897  1.00  0.00     0.408 P 
ATOM    563  OP1   T A  25       2.126   5.777  28.315  1.00  0.00    -0.624 OA
ATOM    564  O5'   T A  25      -0.291   5.465  28.856  1.00  0.00    -0.287 OA
ATOM    565  OP2   T A  25       1.391   4.279  30.265  1.00  0.00    -0.624 OA
ATOM    566  C5'   T A  25      -0.778   6.102  27.676  1.00  0.00     0.216 C 
ATOM    567  C4'   T A  25      -2.135   6.712  27.934  1.00  0.00     0.180 C 
ATOM    568  C3'   T A  25      -2.265   7.488  29.237  1.00  0.00     0.198 C 
ATOM    569  O4'   T A  25      -3.116   5.646  28.046  1.00  0.00    -0.353 OA
ATOM    570  O3'   T A  25      -1.834   8.838  29.086  1.00  0.00    -0.279 OA
ATOM    571  C2'   T A  25      -3.756   7.385  29.539  1.00  0.00     0.199 C 
ATOM    572  P     C A  26      -1.476   9.713  30.388  1.00  0.00     0.408 P 
ATOM    573  OP1   C A  26      -0.869  10.982  29.916  1.00  0.00    -0.624 OA
ATOM    574  O5'   C A  26      -2.897  10.052  31.025  1.00  0.00    -0.287 OA
ATOM    575  OP2   C A  26      -0.730   8.851  31.342  1.00  0.00    -0.624 OA
ATOM    576  C5'   C A  26      -3.056  10.190  32.436  1.00  0.00     0.216 C 
ATOM    577  C4'   C A  26      -4.523  10.195  32.797  1.00  0.00     0.180 C 
ATOM    578  C3'   C A  26      -4.817  10.265  34.291  1.00  0.00     0.198 C 
ATOM    579  O4'   C A  26      -5.119   8.946  32.349  1.00  0.00    -0.353 OA
ATOM    580  O3'   C A  26      -4.921  11.615  34.736  1.00  0.00    -0.279 OA
ATOM    581  C2'   C A  26      -6.134   9.510  34.411  1.00  0.00     0.199 C 
ATOM    582  P     A A  27      -3.850  12.200  35.785  1.00  0.00     0.408 P 
ATOM    583  OP1   A A  27      -3.697  13.648  35.494  1.00  0.00    -0.624 OA
ATOM    584  OP2   A A  27      -2.650  11.323  35.789  1.00  0.00    -0.624 OA
ATOM    585  O5'   A A  27      -4.577  12.055  37.194  1.00  0.00    -0.287 OA
ATOM    586  C5'   A A  27      -5.900  12.552  37.391  1.00  0.00     0.216 C 
ATOM    587  C4'   A A  27      -6.476  12.012  38.679  1.00  0.00     0.180 C 
ATOM    588  C3'   A A  27      -5.468  11.724  39.783  1.00  0.00     0.198 C 
ATOM    589  O4'   A A  27      -7.097  10.723  38.414  1.00  0.00    -0.353 OA
ATOM    590  C2'   A A  27      -6.186  10.657  40.597  1.00  0.00     0.199 C 
ATOM    591  O2'   A A  27      -7.218  11.218  41.386  1.00  0.00    -0.388 OA
ATOM    592  C1'   A A  27      -6.818   9.831  39.480  1.00  0.00     0.262 C 
ATOM    593 'HO2   A A  27      -6.917  12.087  41.655  1.00  0.00     0.210 HD
ATOM    594  N9    A A  27      -5.952   8.766  38.978  1.00  0.00    -0.294 N 
ATOM    595  C4    A A  27      -5.776   7.526  39.544  1.00  0.00     0.167 A 
ATOM    596  C8    A A  27      -5.148   8.786  37.864  1.00  0.00     0.214 A 
ATOM    597  N3    A A  27      -6.361   7.047  40.655  1.00  0.00    -0.222 NA
ATOM    598  C5    A A  27      -4.868   6.867  38.735  1.00  0.00     0.149 A 
ATOM    599  C2    A A  27      -5.949   5.807  40.905  1.00  0.00     0.237 A 
ATOM    600  N1    A A  27      -5.083   5.047  40.221  1.00  0.00    -0.222 NA
ATOM    601  C6    A A  27      -4.514   5.558  39.108  1.00  0.00     0.155 A 
ATOM    602  N6    A A  27      -3.653   4.800  38.429  1.00  0.00    -0.382 N 
ATOM    603  H61   A A  27      -3.214   5.160  37.594  1.00  0.00     0.157 HD
ATOM    604  H62   A A  27      -3.440   3.865  38.750  1.00  0.00     0.157 HD
ATOM    605  N7    A A  27      -4.479   7.674  37.675  1.00  0.00    -0.236 NA
ATOM    606  O2'   C A  26      -7.226  10.317  34.013  1.00  0.00    -0.388 OA
ATOM    607  C1'   C A  26      -5.934   8.407  33.374  1.00  0.00     0.264 C 
ATOM    608 'HO2   C A  26      -6.932  11.226  34.076  1.00  0.00     0.210 HD
ATOM    609  N1    C A  26      -5.275   7.199  33.901  1.00  0.00    -0.278 N 
ATOM    610  C6    C A  26      -4.047   6.813  33.439  1.00  0.00     0.102 A 
ATOM    611  C2    C A  26      -5.926   6.447  34.882  1.00  0.00     0.352 A 
ATOM    612  C5    C A  26      -3.445   5.713  33.910  1.00  0.00     0.067 A 
ATOM    613  C4    C A  26      -4.133   4.966  34.908  1.00  0.00     0.128 A 
ATOM    614  N4    C A  26      -3.585   3.863  35.413  1.00  0.00    -0.384 N 
ATOM    615  N3    C A  26      -5.330   5.334  35.368  1.00  0.00    -0.177 NA
ATOM    616  H41   C A  26      -2.680   3.549  35.093  1.00  0.00     0.157 HD
ATOM    617  H42   C A  26      -4.081   3.334  36.118  1.00  0.00     0.157 HD
ATOM    618  O2    C A  26      -7.036   6.818  35.287  1.00  0.00    -0.244 OA
ATOM    619  C1'   T A  25      -4.066   5.970  29.047  1.00  0.00     0.264 C 
ATOM    620  O2'   T A  25      -4.501   8.307  28.766  1.00  0.00    -0.388 OA
ATOM    621  N1    T A  25      -3.996   4.949  30.101  1.00  0.00    -0.280 N 
ATOM    622  C6    T A  25      -2.837   4.245  30.340  1.00  0.00     0.104 A 
ATOM    623  C2    T A  25      -5.137   4.714  30.846  1.00  0.00     0.331 A 
ATOM    624  C5    T A  25      -2.751   3.309  31.290  1.00  0.00     0.092 A 
ATOM    625  C4    T A  25      -3.889   3.010  32.102  1.00  0.00     0.250 A 
ATOM    626  N3    T A  25      -5.011   3.749  31.810  1.00  0.00    -0.275 N 
ATOM    627  O4    T A  25      -3.930   2.184  33.014  1.00  0.00    -0.268 OA
ATOM    628  H3    T A  25      -5.838   3.555  32.357  1.00  0.00     0.173 HD
ATOM    629  O2    T A  25      -6.180   5.316  30.667  1.00  0.00    -0.246 OA
ATOM    630 'HO2   T A  25      -4.020   9.134  28.780  1.00  0.00     0.210 HD
ATOM    631  C1'   A A  24      -1.727   1.291  27.356  1.00  0.00     0.262 C 
ATOM    632  O4'   A A  24      -0.607   0.422  27.355  1.00  0.00    -0.353 OA
BRANCH 588 633
ATOM    633  O3'   A A  27      -5.168  12.889  40.546  1.00  0.00    -0.279 OA
BRANCH 633 634
ATOM    634  P     G A  28      -3.639  13.232  40.910  1.00  0.00     0.408 P 
ATOM    635  OP2   G A  28      -3.354  12.740  42.283  1.00  0.00    -0.624 OA
ATOM    636  OP1   G A  28      -2.801  12.763  39.776  1.00  0.00    -0.624 OA
BRANCH 634 637
ATOM    637  O5'   G A  28      -3.594  14.824  40.928  1.00  0.00    -0.287 OA
BRANCH 637 638
ATOM    638  C5'   G A  28      -2.654  15.521  41.743  1.00  0.00     0.216 C 
BRANCH 638 639
ATOM    639  C4'   G A  28      -3.372  16.352  42.783  1.00  0.00     0.180 C 
ATOM    640  C3'   G A  28      -3.116  15.967  44.232  1.00  0.00     0.198 C 
ATOM    641  C2'   G A  28      -4.322  16.571  44.945  1.00  0.00     0.199 C 
ATOM    642  O2'   G A  28      -4.139  17.958  45.159  1.00  0.00    -0.388 OA
ATOM    643  C1'   G A  28      -5.426  16.379  43.901  1.00  0.00     0.262 C 
ATOM    644 'HO2   G A  28      -3.212  18.139  45.007  1.00  0.00     0.210 HD
ATOM    645  O4'   G A  28      -4.805  16.180  42.643  1.00  0.00    -0.353 OA
ATOM    646  N9    G A  28      -6.296  15.239  44.176  1.00  0.00    -0.293 N 
ATOM    647  C8    G A  28      -6.422  14.090  43.432  1.00  0.00     0.214 A 
ATOM    648  C4    G A  28      -7.156  15.106  45.239  1.00  0.00     0.187 A 
ATOM    649  N7    G A  28      -7.285  13.248  43.929  1.00  0.00    -0.234 NA
ATOM    650  C5    G A  28      -7.757  13.877  45.074  1.00  0.00     0.173 A 
ATOM    651  C6    G A  28      -8.713  13.449  46.033  1.00  0.00     0.292 A 
ATOM    652  O6    G A  28      -9.356  12.393  46.066  1.00  0.00    -0.265 OA
ATOM    653  N1    G A  28      -8.892  14.397  47.035  1.00  0.00    -0.153 N 
ATOM    654  C2    G A  28      -8.237  15.600  47.106  1.00  0.00     0.703 A 
ATOM    655  H1    G A  28      -9.554  14.180  47.763  1.00  0.00     0.187 HD
ATOM    656  N3    G A  28      -7.346  16.011  46.223  1.00  0.00    -0.044 NA
ATOM    657  N2    G A  28      -8.544  16.375  48.149  1.00  0.00    -0.233 N 
ATOM    658  H21   G A  28      -8.089  17.270  48.247  1.00  0.00     0.174 HD
ATOM    659  H22   G A  28      -9.224  16.071  48.832  1.00  0.00     0.174 HD
BRANCH 640 660
ATOM    660  O3'   G A  28      -1.880  16.498  44.704  1.00  0.00    -0.279 OA
BRANCH 660 661
ATOM    661  P     A A  29      -0.789  15.518  45.366  1.00  0.00     0.408 P 
ATOM    662  OP2   A A  29      -0.391  14.506  44.353  1.00  0.00    -0.624 OA
ATOM    663  OP1   A A  29       0.249  16.377  45.990  1.00  0.00    -0.624 OA
BRANCH 661 664
ATOM    664  O5'   A A  29      -1.587  14.779  46.530  1.00  0.00    -0.287 OA
BRANCH 664 665
ATOM    665  C5'   A A  29      -2.153  13.485  46.326  1.00  0.00     0.216 C 
BRANCH 665 666
ATOM    666  C4'   A A  29      -1.429  12.459  47.166  1.00  0.00     0.180 C 
ATOM    667  O4'   A A  29      -2.396  11.719  47.956  1.00  0.00    -0.353 OA
ATOM    668  C1'   A A  29      -1.939  10.391  48.141  1.00  0.00     0.262 C 
ATOM    669  N9    A A  29      -2.975   9.477  47.657  1.00  0.00    -0.294 N 
ATOM    670  C2'   A A  29      -0.600  10.247  47.414  1.00  0.00     0.199 C 
ATOM    671  C8    A A  29      -3.958   9.730  46.731  1.00  0.00     0.214 A 
ATOM    672  C4    A A  29      -3.155   8.173  48.050  1.00  0.00     0.167 A 
ATOM    673  N7    A A  29      -4.745   8.705  46.505  1.00  0.00    -0.236 NA
ATOM    674  C5    A A  29      -4.246   7.711  47.335  1.00  0.00     0.149 A 
ATOM    675  C6    A A  29      -4.640   6.380  47.563  1.00  0.00     0.155 A 
ATOM    676  N6    A A  29      -5.672   5.796  46.951  1.00  0.00    -0.382 N 
ATOM    677  N1    A A  29      -3.928   5.657  48.455  1.00  0.00    -0.222 NA
ATOM    678  H62   A A  29      -5.906   4.835  47.158  1.00  0.00     0.157 HD
ATOM    679  H61   A A  29      -6.219   6.319  46.281  1.00  0.00     0.157 HD
ATOM    680  C2    A A  29      -2.892   6.243  49.073  1.00  0.00     0.237 A 
ATOM    681  N3    A A  29      -2.426   7.483  48.944  1.00  0.00    -0.222 NA
ATOM    682  O2'   A A  29       0.443  10.477  48.343  1.00  0.00    -0.388 OA
ATOM    683  C3'   A A  29      -0.684  11.379  46.396  1.00  0.00     0.198 C 
ATOM    684 'HO2   A A  29       1.075  11.047  47.907  1.00  0.00     0.210 HD
ATOM    685  O3'   A A  29       0.600  11.831  45.975  1.00  0.00    -0.279 OA
ATOM    686  P     A A  30       1.282  11.200  44.662  1.00  0.00     0.408 P 
ATOM    687  O5'   A A  30       1.808   9.775  45.147  1.00  0.00    -0.287 OA
ATOM    688  OP2   A A  30       0.230  10.983  43.637  1.00  0.00    -0.624 OA
ATOM    689  OP1   A A  30       2.456  12.050  44.340  1.00  0.00    -0.624 OA
ATOM    690  C5'   A A  30       2.788   9.665  46.177  1.00  0.00     0.216 C 
ATOM    691  C4'   A A  30       2.983   8.217  46.562  1.00  0.00     0.180 C 
ATOM    692  C3'   A A  30       3.194   7.247  45.411  1.00  0.00     0.198 C 
ATOM    693  O4'   A A  30       1.779   7.727  47.204  1.00  0.00    -0.353 OA
ATOM    694  O3'   A A  30       4.550   7.249  44.970  1.00  0.00    -0.279 OA
ATOM    695  C2'   A A  30       2.781   5.911  46.022  1.00  0.00     0.199 C 
ATOM    696  P     G A  31       4.930   6.620  43.539  1.00  0.00     0.408 P 
ATOM    697  O5'   G A  31       4.849   5.045  43.782  1.00  0.00    -0.287 OA
ATOM    698  OP1   G A  31       6.348   6.971  43.277  1.00  0.00    -0.624 OA
ATOM    699  OP2   G A  31       3.884   7.009  42.556  1.00  0.00    -0.624 OA
ATOM    700  C5'   G A  31       3.770   4.268  43.260  1.00  0.00     0.216 C 
ATOM    701  C4'   G A  31       4.178   3.608  41.962  1.00  0.00     0.180 C 
ATOM    702  O4'   G A  31       5.281   4.360  41.383  1.00  0.00    -0.353 OA
ATOM    703  C3'   G A  31       4.688   2.175  42.094  1.00  0.00     0.198 C 
ATOM    704  C1'   G A  31       6.302   3.474  40.970  1.00  0.00     0.262 C 
ATOM    705  C2'   G A  31       5.701   2.070  40.959  1.00  0.00     0.199 C 
ATOM    706  N9    G A  31       7.440   3.635  41.871  1.00  0.00    -0.293 N 
ATOM    707  O2'   G A  31       5.060   1.860  39.715  1.00  0.00    -0.388 OA
ATOM    708 'HO2   G A  31       4.133   1.708  39.905  1.00  0.00     0.210 HD
ATOM    709  C4    G A  31       7.985   2.673  42.691  1.00  0.00     0.187 A 
ATOM    710  C8    G A  31       8.180   4.774  42.071  1.00  0.00     0.214 A 
ATOM    711  N3    G A  31       7.559   1.399  42.808  1.00  0.00    -0.044 NA
ATOM    712  C5    G A  31       9.031   3.294  43.339  1.00  0.00     0.173 A 
ATOM    713  C2    G A  31       8.284   0.714  43.673  1.00  0.00     0.703 A 
ATOM    714  N2    G A  31       7.994  -0.569  43.910  1.00  0.00    -0.233 N 
ATOM    715  N1    G A  31       9.344   1.235  44.369  1.00  0.00    -0.153 N 
ATOM    716  H22   G A  31       8.537  -1.109  44.566  1.00  0.00     0.174 HD
ATOM    717  H21   G A  31       7.219  -0.990  43.418  1.00  0.00     0.174 HD
ATOM    718  C6    G A  31       9.801   2.543  44.267  1.00  0.00     0.292 A 
ATOM    719  H1    G A  31       9.836   0.627  45.005  1.00  0.00     0.187 HD
ATOM    720  O6    G A  31      10.767   2.911  44.946  1.00  0.00    -0.265 OA
ATOM    721  N7    G A  31       9.142   4.619  42.939  1.00  0.00    -0.234 NA
ATOM    722  O2'   A A  30       3.833   5.350  46.787  1.00  0.00    -0.388 OA
ATOM    723  C1'   A A  30       1.661   6.334  46.978  1.00  0.00     0.262 C 
ATOM    724 'HO2   A A  30       4.652   5.618  46.370  1.00  0.00     0.210 HD
ATOM    725  N9    A A  30       0.322   6.061  46.458  1.00  0.00    -0.294 N 
ATOM    726  C8    A A  30      -0.430   6.833  45.607  1.00  0.00     0.214 A 
ATOM    727  C4    A A  30      -0.441   4.952  46.730  1.00  0.00     0.167 A 
ATOM    728  N7    A A  30      -1.595   6.311  45.311  1.00  0.00    -0.236 NA
ATOM    729  C5    A A  30      -1.614   5.116  46.017  1.00  0.00     0.149 A 
ATOM    730  C6    A A  30      -2.575   4.093  46.125  1.00  0.00     0.155 A 
ATOM    731  N6    A A  30      -3.749   4.108  45.495  1.00  0.00    -0.382 N 
ATOM    732  N1    A A  30      -2.281   3.037  46.915  1.00  0.00    -0.222 NA
ATOM    733  H61   A A  30      -3.990   4.887  44.899  1.00  0.00     0.157 HD
ATOM    734  H62   A A  30      -4.397   3.339  45.605  1.00  0.00     0.157 HD
ATOM    735  C2    A A  30      -1.101   3.019  47.548  1.00  0.00     0.237 A 
ATOM    736  N3    A A  30      -0.118   3.916  47.523  1.00  0.00    -0.222 NA
BRANCH 703 737
ATOM    737  O3'   G A  31       3.625   1.234  41.964  1.00  0.00    -0.279 OA
BRANCH 737 738
ATOM    738  P     G A  32       3.187   0.336  43.226  1.00  0.00     0.408 P 
ATOM    739  OP2   G A  32       4.098   0.662  44.352  1.00  0.00    -0.624 OA
ATOM    740  OP1   G A  32       1.718   0.472  43.411  1.00  0.00    -0.624 OA
BRANCH 738 741
ATOM    741  O5'   G A  32       3.497  -1.158  42.763  1.00  0.00    -0.287 OA
BRANCH 741 742
ATOM    742  C5'   G A  32       2.604  -2.228  43.071  1.00  0.00     0.216 C 
BRANCH 742 743
ATOM    743  C4'   G A  32       1.825  -2.629  41.841  1.00  0.00     0.180 C 
ATOM    744  C3'   G A  32       0.312  -2.678  42.015  1.00  0.00     0.198 C 
ATOM    745  C2'   G A  32      -0.110  -3.752  41.019  1.00  0.00     0.199 C 
ATOM    746  O3'   G A  32      -0.287  -1.417  41.732  1.00  0.00    -0.279 OA
ATOM    747  O2'   G A  32      -0.159  -3.236  39.703  1.00  0.00    -0.388 OA
ATOM    748  C1'   G A  32       1.061  -4.728  41.120  1.00  0.00     0.262 C 
ATOM    749 'HO2   G A  32      -0.334  -2.297  39.784  1.00  0.00     0.210 HD
ATOM    750  N9    G A  32       0.874  -5.774  42.121  1.00  0.00    -0.293 N 
ATOM    751  O4'   G A  32       2.210  -3.981  41.469  1.00  0.00    -0.353 OA
ATOM    752  C4    G A  32      -0.106  -6.737  42.121  1.00  0.00     0.187 A 
ATOM    753  C8    G A  32       1.634  -5.996  43.243  1.00  0.00     0.214 A 
ATOM    754  C5    G A  32       0.122  -7.492  43.253  1.00  0.00     0.173 A 
ATOM    755  N3    G A  32      -1.073  -6.884  41.192  1.00  0.00    -0.044 NA
ATOM    756  N7    G A  32       1.224  -7.013  43.950  1.00  0.00    -0.234 NA
ATOM    757  C6    G A  32      -0.741  -8.583  43.532  1.00  0.00     0.292 A 
ATOM    758  N1    G A  32      -1.726  -8.714  42.561  1.00  0.00    -0.153 N 
ATOM    759  O6    G A  32      -0.707  -9.370  44.483  1.00  0.00    -0.265 OA
ATOM    760  H1    G A  32      -2.388  -9.467  42.673  1.00  0.00     0.187 HD
ATOM    761  C2    G A  32      -1.866  -7.903  41.464  1.00  0.00     0.703 A 
ATOM    762  N2    G A  32      -2.879  -8.191  40.643  1.00  0.00    -0.233 N 
ATOM    763  H21   G A  32      -3.025  -7.623  39.822  1.00  0.00     0.174 HD
ATOM    764  H22   G A  32      -3.492  -8.971  40.841  1.00  0.00     0.174 HD
ATOM    765  P     C A  33      -1.589  -0.945  42.551  1.00  0.00     0.408 P 
ATOM    766  O5'   C A  33      -2.695  -2.034  42.183  1.00  0.00    -0.287 OA
ATOM    767  OP2   C A  33      -1.290  -1.058  44.001  1.00  0.00    -0.624 OA
ATOM    768  OP1   C A  33      -2.014   0.362  41.989  1.00  0.00    -0.624 OA
ATOM    769  C5'   C A  33      -3.412  -1.964  40.952  1.00  0.00     0.216 C 
ATOM    770  C4'   C A  33      -4.407  -3.098  40.858  1.00  0.00     0.180 C 
ATOM    771  C3'   C A  33      -5.495  -3.114  41.923  1.00  0.00     0.198 C 
ATOM    772  O4'   C A  33      -3.712  -4.357  41.047  1.00  0.00    -0.353 OA
ATOM    773  O3'   C A  33      -6.576  -2.252  41.576  1.00  0.00    -0.279 OA
ATOM    774  C2'   C A  33      -5.906  -4.583  41.951  1.00  0.00     0.199 C 
ATOM    775  P     T A  34      -7.632  -1.795  42.703  1.00  0.00     0.408 P 
ATOM    776  OP2   T A  34      -6.906  -1.038  43.754  1.00  0.00    -0.624 OA
ATOM    777  OP1   T A  34      -8.775  -1.160  41.998  1.00  0.00    -0.624 OA
ATOM    778  O5'   T A  34      -8.141  -3.165  43.340  1.00  0.00    -0.287 OA
ATOM    779  C5'   T A  34      -9.010  -4.036  42.615  1.00  0.00     0.216 C 
ATOM    780  C4'   T A  34      -9.579  -5.091  43.535  1.00  0.00     0.180 C 
ATOM    781  C3'   T A  34     -10.074  -4.594  44.884  1.00  0.00     0.198 C 
ATOM    782  O4'   T A  34      -8.536  -6.043  43.874  1.00  0.00    -0.353 OA
ATOM    783  C2'   T A  34     -10.000  -5.850  45.745  1.00  0.00     0.199 C 
ATOM    784  O3'   T A  34     -11.398  -4.073  44.791  1.00  0.00    -0.279 OA
ATOM    785  O2'   T A  34     -11.114  -6.691  45.509  1.00  0.00    -0.388 OA
ATOM    786  C1'   T A  34      -8.744  -6.527  45.189  1.00  0.00     0.264 C 
ATOM    787 'HO2   T A  34     -11.758  -6.153  45.047  1.00  0.00     0.210 HD
ATOM    788  N1    T A  34      -7.531  -6.260  45.975  1.00  0.00    -0.280 N 
ATOM    789  C2    T A  34      -7.035  -7.282  46.765  1.00  0.00     0.331 A 
ATOM    790  C6    T A  34      -6.907  -5.032  45.930  1.00  0.00     0.104 A 
ATOM    791  N3    T A  34      -5.907  -6.969  47.479  1.00  0.00    -0.275 N 
ATOM    792  O2    T A  34      -7.554  -8.382  46.829  1.00  0.00    -0.246 OA
ATOM    793  H3    T A  34      -5.533  -7.697  48.069  1.00  0.00     0.173 HD
ATOM    794  C4    T A  34      -5.235  -5.768  47.482  1.00  0.00     0.250 A 
ATOM    795  C5    T A  34      -5.806  -4.764  46.640  1.00  0.00     0.092 A 
ATOM    796  O4    T A  34      -4.228  -5.642  48.179  1.00  0.00    -0.268 OA
ATOM    797  P     G A  35     -11.690  -2.550  45.216  1.00  0.00     0.408 P 
ATOM    798  OP1   G A  35     -13.087  -2.244  44.813  1.00  0.00    -0.624 OA
ATOM    799  O5'   G A  35     -11.625  -2.574  46.809  1.00  0.00    -0.287 OA
ATOM    800  OP2   G A  35     -10.580  -1.696  44.716  1.00  0.00    -0.624 OA
ATOM    801  C5'   G A  35     -12.236  -3.627  47.554  1.00  0.00     0.216 C 
ATOM    802  C4'   G A  35     -12.016  -3.417  49.034  1.00  0.00     0.180 C 
ATOM    803  C3'   G A  35     -11.941  -1.963  49.485  1.00  0.00     0.198 C 
ATOM    804  O4'   G A  35     -10.730  -3.987  49.404  1.00  0.00    -0.353 OA
ATOM    805  O3'   G A  35     -13.232  -1.434  49.769  1.00  0.00    -0.279 OA
ATOM    806  C2'   G A  35     -11.056  -2.049  50.721  1.00  0.00     0.199 C 
ATOM    807  P     C A  36     -13.699  -0.062  49.075  1.00  0.00     0.408 P 
ATOM    808  OP1   C A  36     -15.019   0.297  49.651  1.00  0.00    -0.624 OA
ATOM    809  O5'   C A  36     -12.630   1.005  49.583  1.00  0.00    -0.287 OA
ATOM    810  OP2   C A  36     -13.555  -0.204  47.604  1.00  0.00    -0.624 OA
ATOM    811  C5'   C A  36     -12.420   1.229  50.976  1.00  0.00     0.216 C 
ATOM    812  C4'   C A  36     -11.546   2.442  51.184  1.00  0.00     0.180 C 
ATOM    813  C3'   C A  36     -11.747   3.574  50.188  1.00  0.00     0.198 C 
ATOM    814  O4'   C A  36     -10.154   2.058  51.010  1.00  0.00    -0.353 OA
ATOM    815  O3'   C A  36     -12.834   4.417  50.562  1.00  0.00    -0.279 OA
ATOM    816  C2'   C A  36     -10.406   4.294  50.242  1.00  0.00     0.199 C 
ATOM    817  P     G A  37     -13.619   5.257  49.437  1.00  0.00     0.408 P 
ATOM    818  O5'   G A  37     -12.619   6.444  49.076  1.00  0.00    -0.287 OA
ATOM    819  OP2   G A  37     -13.780   4.403  48.232  1.00  0.00    -0.624 OA
ATOM    820  OP1   G A  37     -14.819   5.844  50.084  1.00  0.00    -0.624 OA
ATOM    821  C5'   G A  37     -12.232   7.408  50.057  1.00  0.00     0.216 C 
ATOM    822  C4'   G A  37     -11.708   8.655  49.385  1.00  0.00     0.180 C 
ATOM    823  C3'   G A  37     -12.321   8.973  48.027  1.00  0.00     0.198 C 
ATOM    824  O4'   G A  37     -10.286   8.481  49.128  1.00  0.00    -0.353 OA
ATOM    825  O3'   G A  37     -13.490   9.777  48.155  1.00  0.00    -0.279 OA
ATOM    826  C2'   G A  37     -11.188   9.702  47.316  1.00  0.00     0.199 C 
ATOM    827  P     T A  38     -14.610   9.749  47.000  1.00  0.00     0.408 P 
ATOM    828  OP2   T A  38     -14.932   8.333  46.691  1.00  0.00    -0.624 OA
ATOM    829  OP1   T A  38     -15.694  10.675  47.414  1.00  0.00    -0.624 OA
ATOM    830  O5'   T A  38     -13.873  10.379  45.735  1.00  0.00    -0.287 OA
ATOM    831  C5'   T A  38     -13.445  11.741  45.738  1.00  0.00     0.216 C 
ATOM    832  C4'   T A  38     -12.736  12.068  44.445  1.00  0.00     0.180 C 
ATOM    833  C3'   T A  38     -13.468  11.664  43.174  1.00  0.00     0.198 C 
ATOM    834  O4'   T A  38     -11.487  11.327  44.387  1.00  0.00    -0.353 OA
ATOM    835  O3'   T A  38     -14.427  12.643  42.784  1.00  0.00    -0.279 OA
ATOM    836  C2'   T A  38     -12.325  11.534  42.174  1.00  0.00     0.199 C 
ATOM    837  P     G A  39     -15.697  12.209  41.897  1.00  0.00     0.408 P 
ATOM    838  O5'   G A  39     -15.053  11.669  40.543  1.00  0.00    -0.287 OA
ATOM    839  OP2   G A  39     -16.379  11.079  42.575  1.00  0.00    -0.624 OA
ATOM    840  OP1   G A  39     -16.458  13.446  41.586  1.00  0.00    -0.624 OA
ATOM    841  C5'   G A  39     -14.279  12.527  39.705  1.00  0.00     0.216 C 
ATOM    842  C4'   G A  39     -13.718  11.751  38.537  1.00  0.00     0.180 C 
ATOM    843  O4'   G A  39     -12.682  10.849  39.004  1.00  0.00    -0.353 OA
ATOM    844  C3'   G A  39     -14.690  10.823  37.826  1.00  0.00     0.198 C 
ATOM    845  C1'   G A  39     -12.623   9.720  38.148  1.00  0.00     0.262 C 
ATOM    846  N9    G A  39     -12.726   8.512  38.962  1.00  0.00    -0.293 N 
ATOM    847  C2'   G A  39     -13.749   9.855  37.118  1.00  0.00     0.199 C 
ATOM    848  C4    G A  39     -12.324   7.249  38.601  1.00  0.00     0.187 A 
ATOM    849  C8    G A  39     -13.243   8.405  40.230  1.00  0.00     0.214 A 
ATOM    850  N3    G A  39     -11.757   6.903  37.426  1.00  0.00    -0.044 NA
ATOM    851  C5    G A  39     -12.626   6.445  39.680  1.00  0.00     0.173 A 
ATOM    852  C2    G A  39     -11.484   5.612  37.372  1.00  0.00     0.703 A 
ATOM    853  N1    G A  39     -11.745   4.728  38.387  1.00  0.00    -0.153 N 
ATOM    854  N2    G A  39     -10.919   5.101  36.275  1.00  0.00    -0.233 N 
ATOM    855  C6    G A  39     -12.325   5.060  39.606  1.00  0.00     0.292 A 
ATOM    856  H1    G A  39     -11.496   3.762  38.239  1.00  0.00     0.187 HD
ATOM    857  O6    G A  39     -12.517   4.181  40.454  1.00  0.00    -0.265 OA
ATOM    858  H22   G A  39     -10.713   4.112  36.218  1.00  0.00     0.174 HD
ATOM    859  H21   G A  39     -10.707   5.710  35.499  1.00  0.00     0.174 HD
ATOM    860  N7    G A  39     -13.204   7.188  40.701  1.00  0.00    -0.234 NA
ATOM    861  C1'   T A  38     -11.234  10.922  43.051  1.00  0.00     0.264 C 
ATOM    862  O2'   T A  38     -11.891  12.807  41.732  1.00  0.00    -0.388 OA
ATOM    863  N1    T A  38     -11.192   9.454  43.011  1.00  0.00    -0.280 N 
ATOM    864  C6    T A  38     -11.908   8.691  43.907  1.00  0.00     0.104 A 
ATOM    865  C2    T A  38     -10.408   8.858  42.038  1.00  0.00     0.331 A 
ATOM    866  C5    T A  38     -11.880   7.354  43.891  1.00  0.00     0.092 A 
ATOM    867  C4    T A  38     -11.093   6.667  42.917  1.00  0.00     0.250 A 
ATOM    868  N3    T A  38     -10.409   7.488  42.050  1.00  0.00    -0.275 N 
ATOM    869  O4    T A  38     -10.973   5.446  42.811  1.00  0.00    -0.268 OA
ATOM    870  H3    T A  38      -9.859   7.032  41.338  1.00  0.00     0.173 HD
ATOM    871  O2    T A  38      -9.759   9.496  41.229  1.00  0.00    -0.246 OA
ATOM    872 'HO2   T A  38     -12.544  13.438  42.037  1.00  0.00     0.210 HD
ATOM    873  O2'   G A  37     -11.074  11.039  47.769  1.00  0.00    -0.388 OA
ATOM    874  C1'   G A  37      -9.982   8.910  47.813  1.00  0.00     0.262 C 
ATOM    875 'HO2   G A  37     -11.896  11.250  48.213  1.00  0.00     0.210 HD
ATOM    876  N9    G A  37      -9.674   7.733  47.007  1.00  0.00    -0.293 N 
ATOM    877  C8    G A  37     -10.118   6.450  47.214  1.00  0.00     0.214 A 
ATOM    878  C4    G A  37      -8.875   7.689  45.890  1.00  0.00     0.187 A 
ATOM    879  N7    G A  37      -9.664   5.599  46.335  1.00  0.00    -0.234 NA
ATOM    880  C5    G A  37      -8.876   6.369  45.490  1.00  0.00     0.173 A 
ATOM    881  C6    G A  37      -8.123   6.002  44.344  1.00  0.00     0.292 A 
ATOM    882  O6    G A  37      -7.997   4.886  43.828  1.00  0.00    -0.265 OA
ATOM    883  N1    G A  37      -7.472   7.098  43.788  1.00  0.00    -0.153 N 
ATOM    884  C2    G A  37      -7.539   8.380  44.268  1.00  0.00     0.703 A 
ATOM    885  H1    G A  37      -6.908   6.933  42.970  1.00  0.00     0.187 HD
ATOM    886  N3    G A  37      -8.237   8.737  45.331  1.00  0.00    -0.044 NA
ATOM    887  N2    G A  37      -6.842   9.298  43.594  1.00  0.00    -0.233 N 
ATOM    888  H21   G A  37      -6.856  10.257  43.906  1.00  0.00     0.174 HD
ATOM    889  H22   G A  37      -6.304   9.035  42.780  1.00  0.00     0.174 HD
ATOM    890  O2'   C A  36     -10.309   5.108  51.395  1.00  0.00    -0.388 OA
ATOM    891  C1'   C A  36      -9.443   3.116  50.389  1.00  0.00     0.264 C 
ATOM    892 'HO2   C A  36     -11.205   5.348  51.634  1.00  0.00     0.210 HD
ATOM    893  N1    C A  36      -8.906   2.631  49.106  1.00  0.00    -0.278 N 
ATOM    894  C6    C A  36      -9.320   1.443  48.568  1.00  0.00     0.102 A 
ATOM    895  C2    C A  36      -7.959   3.411  48.439  1.00  0.00     0.352 A 
ATOM    896  C5    C A  36      -8.833   1.006  47.399  1.00  0.00     0.067 A 
ATOM    897  C4    C A  36      -7.871   1.827  46.741  1.00  0.00     0.128 A 
ATOM    898  N4    C A  36      -7.349   1.448  45.574  1.00  0.00    -0.384 N 
ATOM    899  N3    C A  36      -7.462   2.986  47.257  1.00  0.00    -0.177 NA
ATOM    900  H41   C A  36      -7.631   0.578  45.147  1.00  0.00     0.157 HD
ATOM    901  H42   C A  36      -6.666   2.038  45.120  1.00  0.00     0.157 HD
ATOM    902  O2    C A  36      -7.596   4.478  48.950  1.00  0.00    -0.244 OA
ATOM    903  C1'   G A  35     -10.044  -3.100  50.270  1.00  0.00     0.262 C 
ATOM    904  O2'   G A  35     -11.776  -2.547  51.833  1.00  0.00    -0.388 OA
ATOM    905  N9    G A  35      -8.906  -2.538  49.548  1.00  0.00    -0.293 N 
ATOM    906  C4    G A  35      -8.171  -1.436  49.914  1.00  0.00     0.187 A 
ATOM    907  C8    G A  35      -8.361  -2.993  48.372  1.00  0.00     0.214 A 
ATOM    908  C5    G A  35      -7.220  -1.287  48.926  1.00  0.00     0.173 A 
ATOM    909  N3    G A  35      -8.369  -0.680  51.013  1.00  0.00    -0.044 NA
ATOM    910  N7    G A  35      -7.352  -2.276  47.961  1.00  0.00    -0.234 NA
ATOM    911  C6    G A  35      -6.296  -0.213  49.026  1.00  0.00     0.292 A 
ATOM    912  N1    G A  35      -6.519   0.549  50.167  1.00  0.00    -0.153 N 
ATOM    913  O6    G A  35      -5.381   0.092  48.254  1.00  0.00    -0.265 OA
ATOM    914  C2    G A  35      -7.503   0.313  51.092  1.00  0.00     0.703 A 
ATOM    915  H1    G A  35      -5.908   1.334  50.322  1.00  0.00     0.187 HD
ATOM    916  N2    G A  35      -7.559   1.160  52.122  1.00  0.00    -0.233 N 
ATOM    917  H21   G A  35      -8.269   1.025  52.827  1.00  0.00     0.174 HD
ATOM    918  H22   G A  35      -6.908   1.925  52.198  1.00  0.00     0.174 HD
ATOM    919 'HO2   G A  35     -12.695  -2.330  51.677  1.00  0.00     0.210 HD
ATOM    920  C1'   C A  33      -4.570  -5.282  41.692  1.00  0.00     0.264 C 
ATOM    921  O2'   C A  33      -6.786  -4.887  40.885  1.00  0.00    -0.388 OA
ATOM    922  N1    C A  33      -3.906  -5.760  42.916  1.00  0.00    -0.278 N 
ATOM    923  C2    C A  33      -4.376  -6.926  43.526  1.00  0.00     0.352 A 
ATOM    924  C6    C A  33      -2.849  -5.080  43.454  1.00  0.00     0.102 A 
ATOM    925  O2    C A  33      -5.333  -7.528  43.017  1.00  0.00    -0.244 OA
ATOM    926  N3    C A  33      -3.778  -7.373  44.652  1.00  0.00    -0.177 NA
ATOM    927  C4    C A  33      -2.748  -6.702  45.169  1.00  0.00     0.128 A 
ATOM    928  C5    C A  33      -2.244  -5.512  44.568  1.00  0.00     0.067 A 
ATOM    929 'HO2   C A  33      -6.957  -4.066  40.424  1.00  0.00     0.210 HD
BRANCH 847 930
ATOM    930  O2'   G A  39     -13.218  10.433  35.940  1.00  0.00    -0.388 OA
ATOM    931 'HO2   G A  39     -13.967  10.659  35.388  1.00  0.00     0.210 HD
ENDBRANCH 847 930
BRANCH 844 932
ATOM    932  O3'   G A  39     -15.529  11.530  36.916  1.00  0.00    -0.279 OA
BRANCH 932 933
ATOM    933  P     G A  40     -15.208  13.065  36.562  1.00  0.00     0.408 P 
ATOM    934  OP2   G A  40     -15.876  13.400  35.279  1.00  0.00    -0.624 OA
ATOM    935  OP1   G A  40     -15.506  13.869  37.775  1.00  0.00    -0.624 OA
BRANCH 933 936
ATOM    936  O5'   G A  40     -13.632  13.086  36.327  1.00  0.00    -0.287 OA
BRANCH 936 937
ATOM    937  C5'   G A  40     -13.050  13.912  35.319  1.00  0.00     0.216 C 
BRANCH 937 938
ATOM    938  C4'   G A  40     -12.701  13.085  34.103  1.00  0.00     0.180 C 
ATOM    939  C3'   G A  40     -11.228  12.729  33.952  1.00  0.00     0.198 C 
ATOM    940  C2'   G A  40     -11.103  12.513  32.449  1.00  0.00     0.199 C 
ATOM    941  C1'   G A  40     -12.015  13.621  31.921  1.00  0.00     0.262 C 
ATOM    942  O2'   G A  40     -11.642  11.258  32.070  1.00  0.00    -0.388 OA
ATOM    943  N9    G A  40     -11.319  14.879  31.671  1.00  0.00    -0.293 N 
ATOM    944  O4'   G A  40     -13.012  13.848  32.903  1.00  0.00    -0.353 OA
ATOM    945  C8    G A  40     -11.174  15.932  32.541  1.00  0.00     0.214 A 
ATOM    946  C4    G A  40     -10.674  15.243  30.514  1.00  0.00     0.187 A 
ATOM    947  N7    G A  40     -10.495  16.926  32.038  1.00  0.00    -0.234 NA
ATOM    948  C5    G A  40     -10.171  16.504  30.756  1.00  0.00     0.173 A 
ATOM    949  C6    G A  40      -9.439  17.158  29.729  1.00  0.00     0.292 A 
ATOM    950  N1    G A  40      -9.347  16.370  28.588  1.00  0.00    -0.153 N 
ATOM    951  O6    G A  40      -8.914  18.276  29.747  1.00  0.00    -0.265 OA
ATOM    952  C2    G A  40      -9.885  15.116  28.450  1.00  0.00     0.703 A 
ATOM    953  H1    G A  40      -8.843  16.757  27.806  1.00  0.00     0.187 HD
ATOM    954  N2    G A  40      -9.681  14.516  27.275  1.00  0.00    -0.233 N 
ATOM    955  N3    G A  40     -10.570  14.497  29.393  1.00  0.00    -0.044 NA
ATOM    956  H21   G A  40     -10.055  13.591  27.127  1.00  0.00     0.174 HD
ATOM    957  H22   G A  40      -9.158  14.974  26.543  1.00  0.00     0.174 HD
ATOM    958 'HO2   G A  40     -11.522  10.675  32.820  1.00  0.00     0.210 HD
BRANCH 939 959
ATOM    959  O3'   G A  40     -10.885  11.567  34.701  1.00  0.00    -0.279 OA
BRANCH 959 960
ATOM    960  P     A A  41      -9.817  11.679  35.900  1.00  0.00     0.408 P 
ATOM    961  OP2   A A  41     -10.517  12.190  37.106  1.00  0.00    -0.624 OA
ATOM    962  OP1   A A  41      -9.095  10.383  35.965  1.00  0.00    -0.624 OA
BRANCH 960 963
ATOM    963  O5'   A A  41      -8.794  12.794  35.399  1.00  0.00    -0.287 OA
BRANCH 963 964
ATOM    964  C5'   A A  41      -9.156  14.175  35.389  1.00  0.00     0.216 C 
BRANCH 964 965
ATOM    965  C4'   A A  41      -8.172  14.978  36.209  1.00  0.00     0.180 C 
ATOM    966  O4'   A A  41      -7.804  16.167  35.459  1.00  0.00    -0.353 OA
ATOM    967  C1'   A A  41      -7.745  17.284  36.328  1.00  0.00     0.262 C 
ATOM    968  C2'   A A  41      -7.889  16.767  37.758  1.00  0.00     0.199 C 
ATOM    969  N9    A A  41      -8.789  18.229  35.929  1.00  0.00    -0.294 N 
ATOM    970  O2'   A A  41      -6.601  16.468  38.263  1.00  0.00    -0.388 OA
ATOM    971  C3'   A A  41      -8.703  15.496  37.540  1.00  0.00     0.198 C 
ATOM    972 'HO2   A A  41      -6.704  15.712  38.841  1.00  0.00     0.210 HD
ATOM    973  O3'   A A  41      -8.505  14.544  38.584  1.00  0.00    -0.279 OA
ATOM    974  P     A A  42      -9.648  14.321  39.693  1.00  0.00     0.408 P 
ATOM    975  OP1   A A  42      -9.192  13.221  40.582  1.00  0.00    -0.624 OA
ATOM    976  O5'   A A  42      -9.640  15.673  40.539  1.00  0.00    -0.287 OA
ATOM    977  OP2   A A  42     -10.957  14.210  39.005  1.00  0.00    -0.624 OA
ATOM    978  C5'   A A  42      -8.589  15.956  41.463  1.00  0.00     0.216 C 
ATOM    979  C4'   A A  42      -8.520  17.442  41.739  1.00  0.00     0.180 C 
ATOM    980  C3'   A A  42      -9.723  18.033  42.464  1.00  0.00     0.198 C 
ATOM    981  O4'   A A  42      -8.459  18.152  40.471  1.00  0.00    -0.353 OA
ATOM    982  O3'   A A  42      -9.577  17.943  43.880  1.00  0.00    -0.279 OA
ATOM    983  C2'   A A  42      -9.730  19.475  41.972  1.00  0.00     0.199 C 
ATOM    984  P     T A  43     -10.880  17.983  44.823  1.00  0.00     0.408 P 
ATOM    985  OP1   T A  43     -10.411  17.914  46.230  1.00  0.00    -0.624 OA
ATOM    986  O5'   T A  43     -11.498  19.431  44.574  1.00  0.00    -0.287 OA
ATOM    987  OP2   T A  43     -11.850  16.976  44.323  1.00  0.00    -0.624 OA
ATOM    988  C5'   T A  43     -10.782  20.610  44.941  1.00  0.00     0.216 C 
ATOM    989  C4'   T A  43     -11.543  21.841  44.505  1.00  0.00     0.180 C 
ATOM    990  C3'   T A  43     -12.994  21.906  44.962  1.00  0.00     0.198 C 
ATOM    991  O4'   T A  43     -11.608  21.863  43.053  1.00  0.00    -0.353 OA
ATOM    992  O3'   T A  43     -13.102  22.494  46.256  1.00  0.00    -0.279 OA
ATOM    993  C2'   T A  43     -13.651  22.756  43.880  1.00  0.00     0.199 C 
ATOM    994  P     C A  44     -14.226  21.972  47.282  1.00  0.00     0.408 P 
ATOM    995  OP2   C A  44     -14.233  20.487  47.249  1.00  0.00    -0.624 OA
ATOM    996  OP1   C A  44     -14.002  22.676  48.570  1.00  0.00    -0.624 OA
ATOM    997  O5'   C A  44     -15.594  22.506  46.658  1.00  0.00    -0.287 OA
ATOM    998  C5'   C A  44     -16.745  21.667  46.571  1.00  0.00     0.216 C 
ATOM    999  C4'   C A  44     -17.234  21.601  45.143  1.00  0.00     0.180 C 
ATOM   1000  C3'   C A  44     -18.492  20.773  44.927  1.00  0.00     0.198 C 
ATOM   1001  O4'   C A  44     -16.219  20.955  44.326  1.00  0.00    -0.353 OA
ATOM   1002  O3'   C A  44     -19.669  21.548  45.133  1.00  0.00    -0.279 OA
ATOM   1003  C2'   C A  44     -18.339  20.315  43.484  1.00  0.00     0.199 C 
ATOM   1004  P     A A  45     -21.012  20.842  45.668  1.00  0.00     0.408 P 
ATOM   1005  OP1   A A  45     -21.943  21.924  46.079  1.00  0.00    -0.624 OA
ATOM   1006  OP2   A A  45     -20.642  19.783  46.641  1.00  0.00    -0.624 OA
ATOM   1007  O5'   A A  45     -21.618  20.138  44.373  1.00  0.00    -0.287 OA
ATOM   1008  C5'   A A  45     -22.008  20.904  43.235  1.00  0.00     0.216 C 
ATOM   1009  C4'   A A  45     -22.764  20.039  42.254  1.00  0.00     0.180 C 
ATOM   1010  O4'   A A  45     -21.804  19.276  41.467  1.00  0.00    -0.353 OA
ATOM   1011  C3'   A A  45     -23.684  18.992  42.873  1.00  0.00     0.198 C 
ATOM   1012  C1'   A A  45     -22.234  17.930  41.362  1.00  0.00     0.262 C 
ATOM   1013  N9    A A  45     -21.342  17.099  42.171  1.00  0.00    -0.294 N 
ATOM   1014  C2'   A A  45     -23.690  17.897  41.815  1.00  0.00     0.199 C 
ATOM   1015  C4    A A  45     -21.053  15.771  41.966  1.00  0.00     0.167 A 
ATOM   1016  C8    A A  45     -20.624  17.473  43.279  1.00  0.00     0.214 A 
ATOM   1017  C5    A A  45     -20.169  15.419  42.969  1.00  0.00     0.149 A 
ATOM   1018  N3    A A  45     -21.527  14.971  40.995  1.00  0.00    -0.222 NA
ATOM   1019  C6    A A  45     -19.710  14.090  42.979  1.00  0.00     0.155 A 
ATOM   1020  N7    A A  45     -19.905  16.504  43.794  1.00  0.00    -0.236 NA
ATOM   1021  N6    A A  45     -18.853  13.610  43.879  1.00  0.00    -0.382 N 
ATOM   1022  N1    A A  45     -20.167  13.260  42.017  1.00  0.00    -0.222 NA
ATOM   1023  H62   A A  45     -18.548  12.647  43.825  1.00  0.00     0.157 HD
ATOM   1024  H61   A A  45     -18.497  14.212  44.607  1.00  0.00     0.157 HD
ATOM   1025  C2    A A  45     -21.025  13.743  41.109  1.00  0.00     0.237 A 
ATOM   1026  O2'   A A  45     -24.516  18.247  40.720  1.00  0.00    -0.388 OA
ATOM   1027 'HO2   A A  45     -25.109  18.933  41.029  1.00  0.00     0.210 HD
ATOM   1028  O3'   A A  45     -24.986  19.516  43.123  1.00  0.00    -0.279 OA
ATOM   1029  P     C A  46     -25.877  18.902  44.313  1.00  0.00     0.408 P 
ATOM   1030  OP2   C A  46     -25.013  18.726  45.507  1.00  0.00    -0.624 OA
ATOM   1031  O5'   C A  46     -26.287  17.457  43.783  1.00  0.00    -0.287 OA
ATOM   1032  OP1   C A  46     -27.110  19.724  44.414  1.00  0.00    -0.624 OA
ATOM   1033  C5'   C A  46     -27.079  17.302  42.607  1.00  0.00     0.216 C 
ATOM   1034  C4'   C A  46     -27.057  15.862  42.148  1.00  0.00     0.180 C 
ATOM   1035  O4'   C A  46     -25.687  15.484  41.843  1.00  0.00    -0.353 OA
ATOM   1036  C3'   C A  46     -27.514  14.841  43.180  1.00  0.00     0.198 C 
ATOM   1037  C1'   C A  46     -25.453  14.153  42.266  1.00  0.00     0.264 C 
ATOM   1038  C2'   C A  46     -26.789  13.577  42.735  1.00  0.00     0.199 C 
ATOM   1039  N1    C A  46     -24.412  14.174  43.308  1.00  0.00    -0.278 N 
ATOM   1040  O2'   C A  46     -27.437  12.978  41.629  1.00  0.00    -0.388 OA
ATOM   1041 'HO2   C A  46     -28.314  13.360  41.584  1.00  0.00     0.210 HD
ATOM   1042  C2    C A  46     -23.619  13.039  43.494  1.00  0.00     0.352 A 
ATOM   1043  C6    C A  46     -24.217  15.286  44.081  1.00  0.00     0.102 A 
ATOM   1044  N3    C A  46     -22.658  13.052  44.444  1.00  0.00    -0.177 NA
ATOM   1045  O2    C A  46     -23.816  12.044  42.783  1.00  0.00    -0.244 OA
ATOM   1046  C4    C A  46     -22.472  14.144  45.189  1.00  0.00     0.128 A 
ATOM   1047  N4    C A  46     -21.510  14.111  46.111  1.00  0.00    -0.384 N 
ATOM   1048  C5    C A  46     -23.265  15.316  45.021  1.00  0.00     0.067 A 
ATOM   1049  H42   C A  46     -20.959  13.273  46.227  1.00  0.00     0.157 HD
ATOM   1050  H41   C A  46     -21.338  14.916  46.695  1.00  0.00     0.157 HD
ATOM   1051  O3'   C A  46     -28.931  14.688  43.171  1.00  0.00    -0.279 OA
ATOM   1052  P     G A  47     -29.680  14.100  44.467  1.00  0.00     0.408 P 
ATOM   1053  OP1   G A  47     -31.106  13.906  44.100  1.00  0.00    -0.624 OA
ATOM   1054  O5'   G A  47     -29.020  12.664  44.678  1.00  0.00    -0.287 OA
ATOM   1055  OP2   G A  47     -29.332  14.949  45.635  1.00  0.00    -0.624 OA
ATOM   1056  C5'   G A  47     -29.273  11.596  43.766  1.00  0.00     0.216 C 
ATOM   1057  C4'   G A  47     -28.716  10.301  44.313  1.00  0.00     0.180 C 
ATOM   1058  C3'   G A  47     -28.934  10.068  45.802  1.00  0.00     0.198 C 
ATOM   1059  O4'   G A  47     -27.274  10.313  44.162  1.00  0.00    -0.353 OA
ATOM   1060  C2'   G A  47     -27.793   9.121  46.163  1.00  0.00     0.199 C 
ATOM   1061  O3'   G A  47     -30.212   9.492  46.061  1.00  0.00    -0.279 OA
ATOM   1062  C1'   G A  47     -26.678   9.613  45.240  1.00  0.00     0.262 C 
ATOM   1063  O2'   G A  47     -28.111   7.787  45.817  1.00  0.00    -0.388 OA
ATOM   1064  N9    G A  47     -25.723  10.504  45.894  1.00  0.00    -0.293 N 
ATOM   1065  C8    G A  47     -25.784  11.874  45.977  1.00  0.00     0.214 A 
ATOM   1066  C4    G A  47     -24.577  10.127  46.550  1.00  0.00     0.187 A 
ATOM   1067  N7    G A  47     -24.775  12.395  46.620  1.00  0.00    -0.234 NA
ATOM   1068  C5    G A  47     -24.004  11.301  46.990  1.00  0.00     0.173 A 
ATOM   1069  C6    G A  47     -22.782  11.234  47.714  1.00  0.00     0.292 A 
ATOM   1070  O6    G A  47     -22.115  12.160  48.191  1.00  0.00    -0.265 OA
ATOM   1071  N1    G A  47     -22.349   9.921  47.865  1.00  0.00    -0.153 N 
ATOM   1072  C2    G A  47     -23.003   8.816  47.382  1.00  0.00     0.703 A 
ATOM   1073  H1    G A  47     -21.485   9.777  48.367  1.00  0.00     0.187 HD
ATOM   1074  N2    G A  47     -22.432   7.635  47.625  1.00  0.00    -0.233 N 
ATOM   1075  N3    G A  47     -24.137   8.863  46.710  1.00  0.00    -0.044 NA
ATOM   1076  H21   G A  47     -22.877   6.794  47.291  1.00  0.00     0.174 HD
ATOM   1077  H22   G A  47     -21.563   7.580  48.138  1.00  0.00     0.174 HD
ATOM   1078 'HO2   G A  47     -29.066   7.718  45.852  1.00  0.00     0.210 HD
ATOM   1079  C1'   C A  44     -16.834  20.059  43.416  1.00  0.00     0.264 C 
ATOM   1080  O2'   C A  44     -18.664  21.356  42.582  1.00  0.00    -0.388 OA
ATOM   1081  N1    C A  44     -16.444  18.685  43.781  1.00  0.00    -0.278 N 
ATOM   1082  C6    C A  44     -15.775  18.433  44.945  1.00  0.00     0.102 A 
ATOM   1083  C2    C A  44     -16.768  17.638  42.912  1.00  0.00     0.352 A 
ATOM   1084  C5    C A  44     -15.416  17.188  45.281  1.00  0.00     0.067 A 
ATOM   1085  C4    C A  44     -15.757  16.140  44.377  1.00  0.00     0.128 A 
ATOM   1086  N4    C A  44     -15.428  14.879  44.657  1.00  0.00    -0.384 N 
ATOM   1087  N3    C A  44     -16.409  16.375  43.238  1.00  0.00    -0.177 NA
ATOM   1088  H41   C A  44     -14.934  14.663  45.511  1.00  0.00     0.157 HD
ATOM   1089  H42   C A  44     -15.674  14.139  44.014  1.00  0.00     0.157 HD
ATOM   1090  O2    C A  44     -17.378  17.891  41.864  1.00  0.00    -0.244 OA
ATOM   1091 'HO2   C A  44     -19.245  21.956  43.053  1.00  0.00     0.210 HD
ATOM   1092  C1'   T A  43     -12.890  22.298  42.635  1.00  0.00     0.264 C 
ATOM   1093  O2'   T A  43     -13.392  24.133  44.087  1.00  0.00    -0.388 OA
ATOM   1094  N1    T A  43     -13.539  21.192  41.916  1.00  0.00    -0.280 N 
ATOM   1095  C2    T A  43     -14.277  21.500  40.788  1.00  0.00     0.331 A 
ATOM   1096  C6    T A  43     -13.416  19.892  42.349  1.00  0.00     0.104 A 
ATOM   1097  N3    T A  43     -14.854  20.425  40.162  1.00  0.00    -0.275 N 
ATOM   1098  O2    T A  43     -14.411  22.637  40.373  1.00  0.00    -0.246 OA
ATOM   1099  H3    T A  43     -15.402  20.625  39.340  1.00  0.00     0.173 HD
ATOM   1100  C4    T A  43     -14.771  19.105  40.538  1.00  0.00     0.250 A 
ATOM   1101  O4    T A  43     -15.341  18.247  39.866  1.00  0.00    -0.268 OA
ATOM   1102  C5    T A  43     -13.993  18.869  41.713  1.00  0.00     0.092 A 
ATOM   1103 'HO2   T A  43     -12.958  24.207  44.937  1.00  0.00     0.210 HD
ATOM   1104  C1'   A A  42      -9.301  19.291  40.518  1.00  0.00     0.262 C 
ATOM   1105  O2'   A A  42      -8.750  20.248  42.639  1.00  0.00    -0.388 OA
ATOM   1106  N9    A A  42     -10.416  19.074  39.597  1.00  0.00    -0.294 N 
ATOM   1107  C8    A A  42     -10.883  17.877  39.115  1.00  0.00     0.214 A 
ATOM   1108  C4    A A  42     -11.215  20.041  39.036  1.00  0.00     0.167 A 
ATOM   1109  N7    A A  42     -11.902  17.997  38.301  1.00  0.00    -0.236 NA
ATOM   1110  C5    A A  42     -12.122  19.365  38.242  1.00  0.00     0.149 A 
ATOM   1111  C6    A A  42     -13.064  20.141  37.546  1.00  0.00     0.155 A 
ATOM   1112  N6    A A  42     -13.995  19.629  36.743  1.00  0.00    -0.382 N 
ATOM   1113  N1    A A  42     -13.015  21.481  37.706  1.00  0.00    -0.222 NA
ATOM   1114  H61   A A  42     -14.042  18.626  36.614  1.00  0.00     0.157 HD
ATOM   1115  H62   A A  42     -14.647  20.235  36.267  1.00  0.00     0.157 HD
ATOM   1116  C2    A A  42     -12.076  21.996  38.512  1.00  0.00     0.237 A 
ATOM   1117  N3    A A  42     -11.136  21.370  39.217  1.00  0.00    -0.222 NA
ATOM   1118 'HO2   A A  42      -8.439  19.726  43.379  1.00  0.00     0.210 HD
ATOM   1119  C4    A A  41      -8.863  19.555  36.282  1.00  0.00     0.167 A 
ATOM   1120  C8    A A  41      -9.881  17.991  35.133  1.00  0.00     0.214 A 
ATOM   1121  N3    A A  41      -8.008  20.241  37.060  1.00  0.00    -0.222 NA
ATOM   1122  C5    A A  41     -10.003  20.044  35.670  1.00  0.00     0.149 A 
ATOM   1123  C2    A A  41      -8.399  21.508  37.182  1.00  0.00     0.237 A 
ATOM   1124  N1    A A  41      -9.466  22.120  36.653  1.00  0.00    -0.222 NA
ATOM   1125  C6    A A  41     -10.304  21.401  35.876  1.00  0.00     0.155 A 
ATOM   1126  N6    A A  41     -11.365  22.013  35.349  1.00  0.00    -0.382 N 
ATOM   1127  H61   A A  41     -12.005  21.495  34.764  1.00  0.00     0.157 HD
ATOM   1128  H62   A A  41     -11.525  22.992  35.538  1.00  0.00     0.157 HD
ATOM   1129  N7    A A  41     -10.638  19.045  34.946  1.00  0.00    -0.236 NA
BRANCH 1061 1130
ATOM   1130  P     T A  48     -31.166  10.123  47.195  1.00  0.00     0.408 P 
ATOM   1131  OP1   T A  48     -31.861   8.985  47.847  1.00  0.00    -0.624 OA
ATOM   1132  OP2   T A  48     -31.966  11.232  46.611  1.00  0.00    -0.624 OA
BRANCH 1130 1133
ATOM   1133  O5'   T A  48     -30.149  10.739  48.258  1.00  0.00    -0.287 OA
BRANCH 1133 1134
ATOM   1134  C5'   T A  48     -29.816  10.038  49.457  1.00  0.00     0.216 C 
BRANCH 1134 1135
ATOM   1135  C4'   T A  48     -29.618  11.015  50.591  1.00  0.00     0.180 C 
ATOM   1136  O4'   T A  48     -30.060  12.329  50.151  1.00  0.00    -0.353 OA
ATOM   1137  C1'   T A  48     -30.738  12.986  51.207  1.00  0.00     0.264 C 
ATOM   1138  N1    T A  48     -32.137  13.186  50.804  1.00  0.00    -0.280 N 
ATOM   1139  C2'   T A  48     -30.572  12.126  52.461  1.00  0.00     0.199 C 
ATOM   1140  C2    T A  48     -32.835  14.225  51.395  1.00  0.00     0.331 A 
ATOM   1141  C6    T A  48     -32.739  12.371  49.871  1.00  0.00     0.104 A 
ATOM   1142  O2    T A  48     -32.341  14.971  52.219  1.00  0.00    -0.246 OA
ATOM   1143  N3    T A  48     -34.137  14.356  50.985  1.00  0.00    -0.275 N 
ATOM   1144  H3    T A  48     -34.665  15.108  51.400  1.00  0.00     0.173 HD
ATOM   1145  C4    T A  48     -34.800  13.576  50.066  1.00  0.00     0.250 A 
ATOM   1146  O4    T A  48     -35.982  13.810  49.817  1.00  0.00    -0.268 OA
ATOM   1147  C5    T A  48     -34.011  12.530  49.496  1.00  0.00     0.092 A 
ATOM   1148  O2'   T A  48     -29.386  12.517  53.127  1.00  0.00    -0.388 OA
ATOM   1149  C3'   T A  48     -30.429  10.737  51.851  1.00  0.00     0.198 C 
ATOM   1150 'HO2   T A  48     -29.180  11.821  53.751  1.00  0.00     0.210 HD
BRANCH 1149 1151
ATOM   1151  O3'   T A  48     -29.757   9.831  52.724  1.00  0.00    -0.279 OA
BRANCH 1151 1152
ATOM   1152  P     C A  49     -28.172   9.979  52.970  1.00  0.00     0.408 P 
ATOM   1153  OP1   C A  49     -27.980  10.494  54.349  1.00  0.00    -0.624 OA
ATOM   1154  OP2   C A  49     -27.574  10.713  51.824  1.00  0.00    -0.624 OA
BRANCH 1152 1155
ATOM   1155  O5'   C A  49     -27.629   8.480  52.927  1.00  0.00    -0.287 OA
BRANCH 1155 1156
ATOM   1156  C5'   C A  49     -27.202   7.816  54.116  1.00  0.00     0.216 C 
BRANCH 1156 1157
ATOM   1157  C4'   C A  49     -26.640   6.453  53.776  1.00  0.00     0.180 C 
ATOM   1158  C3'   C A  49     -25.884   6.360  52.457  1.00  0.00     0.198 C 
ATOM   1159  C2'   C A  49     -26.035   4.885  52.105  1.00  0.00     0.199 C 
ATOM   1160  O2'   C A  49     -25.162   4.079  52.873  1.00  0.00    -0.388 OA
ATOM   1161  C1'   C A  49     -27.471   4.627  52.561  1.00  0.00     0.264 C 
ATOM   1162 'HO2   C A  49     -24.308   4.517  52.871  1.00  0.00     0.210 HD
ATOM   1163  N1    C A  49     -28.468   4.844  51.499  1.00  0.00    -0.278 N 
ATOM   1164  O4'   C A  49     -27.743   5.518  53.627  1.00  0.00    -0.353 OA
ATOM   1165  C2    C A  49     -28.941   3.740  50.791  1.00  0.00     0.352 A 
ATOM   1166  C6    C A  49     -28.918   6.100  51.199  1.00  0.00     0.102 A 
ATOM   1167  O2    C A  49     -28.526   2.615  51.095  1.00  0.00    -0.244 OA
ATOM   1168  N3    C A  49     -29.837   3.925  49.796  1.00  0.00    -0.177 NA
ATOM   1169  C4    C A  49     -30.262   5.154  49.504  1.00  0.00     0.128 A 
ATOM   1170  C5    C A  49     -29.806   6.300  50.216  1.00  0.00     0.067 A 
ATOM   1171  N4    C A  49     -31.140   5.288  48.508  1.00  0.00    -0.384 N 
ATOM   1172  H42   C A  49     -31.456   4.471  48.003  1.00  0.00     0.157 HD
ATOM   1173  H41   C A  49     -31.488   6.201  48.251  1.00  0.00     0.157 HD
BRANCH 1158 1174
ATOM   1174  O3'   C A  49     -24.518   6.750  52.592  1.00  0.00    -0.279 OA
ATOM   1175  P     G A  50     -23.987   8.081  51.856  1.00  0.00     0.408 P 
ATOM   1176  O5'   G A  50     -22.966   7.541  50.757  1.00  0.00    -0.287 OA
ATOM   1177  OP1   G A  50     -23.218   8.859  52.860  1.00  0.00    -0.624 OA
ATOM   1178  OP2   G A  50     -25.126   8.723  51.149  1.00  0.00    -0.624 OA
ATOM   1179  C5'   G A  50     -21.679   7.043  51.123  1.00  0.00     0.216 C 
ATOM   1180  C4'   G A  50     -21.464   5.666  50.533  1.00  0.00     0.180 C 
ATOM   1181  C3'   G A  50     -21.019   5.634  49.077  1.00  0.00     0.198 C 
ATOM   1182  O4'   G A  50     -22.727   4.947  50.536  1.00  0.00    -0.353 OA
ATOM   1183  C2'   G A  50     -21.489   4.256  48.625  1.00  0.00     0.199 C 
ATOM   1184  O3'   G A  50     -19.608   5.791  48.951  1.00  0.00    -0.279 OA
ATOM   1185  C1'   G A  50     -22.808   4.126  49.385  1.00  0.00     0.262 C 
ATOM   1186  O2'   G A  50     -20.604   3.244  49.069  1.00  0.00    -0.388 OA
ATOM   1187  N9    G A  50     -23.968   4.538  48.599  1.00  0.00    -0.293 N 
ATOM   1188  C4    G A  50     -24.355   4.019  47.388  1.00  0.00     0.187 A 
ATOM   1189  C8    G A  50     -24.882   5.514  48.911  1.00  0.00     0.214 A 
ATOM   1190  N3    G A  50     -23.730   3.031  46.715  1.00  0.00    -0.044 NA
ATOM   1191  C5    G A  50     -25.489   4.719  47.034  1.00  0.00     0.173 A 
ATOM   1192  C2    G A  50     -24.336   2.752  45.576  1.00  0.00     0.703 A 
ATOM   1193  N2    G A  50     -23.842   1.803  44.776  1.00  0.00    -0.233 N 
ATOM   1194  N1    G A  50     -25.469   3.383  45.136  1.00  0.00    -0.153 N 
ATOM   1195  H21   G A  50     -23.005   1.309  45.051  1.00  0.00     0.174 HD
ATOM   1196  H22   G A  50     -24.294   1.593  43.898  1.00  0.00     0.174 HD
ATOM   1197  H1    G A  50     -25.850   3.084  44.253  1.00  0.00     0.187 HD
ATOM   1198  C6    G A  50     -26.132   4.402  45.809  1.00  0.00     0.292 A 
ATOM   1199  O6    G A  50     -27.150   4.905  45.318  1.00  0.00    -0.265 OA
ATOM   1200  N7    G A  50     -25.811   5.658  48.006  1.00  0.00    -0.234 NA
ATOM   1201 'HO2   G A  50     -19.731   3.638  49.099  1.00  0.00     0.210 HD
ATOM   1202  P     G A  51     -18.995   6.539  47.664  1.00  0.00     0.408 P 
ATOM   1203  O5'   G A  51     -19.507   5.674  46.426  1.00  0.00    -0.287 OA
ATOM   1204  OP2   G A  51     -19.603   7.892  47.574  1.00  0.00    -0.624 OA
ATOM   1205  OP1   G A  51     -17.518   6.404  47.742  1.00  0.00    -0.624 OA
ATOM   1206  C5'   G A  51     -19.194   4.285  46.322  1.00  0.00     0.216 C 
ATOM   1207  C4'   G A  51     -19.395   3.802  44.902  1.00  0.00     0.180 C 
ATOM   1208  O4'   G A  51     -20.743   3.282  44.747  1.00  0.00    -0.353 OA
ATOM   1209  C3'   G A  51     -19.313   4.853  43.808  1.00  0.00     0.198 C 
ATOM   1210  C1'   G A  51     -21.161   3.461  43.401  1.00  0.00     0.262 C 
ATOM   1211  N9    G A  51     -22.396   4.240  43.391  1.00  0.00    -0.293 N 
ATOM   1212  C2'   G A  51     -20.015   4.146  42.656  1.00  0.00     0.199 C 
ATOM   1213  C4    G A  51     -23.324   4.280  42.378  1.00  0.00     0.187 A 
ATOM   1214  C8    G A  51     -22.860   5.079  44.374  1.00  0.00     0.214 A 
ATOM   1215  N3    G A  51     -23.257   3.599  41.215  1.00  0.00    -0.044 NA
ATOM   1216  C5    G A  51     -24.301   5.150  42.812  1.00  0.00     0.173 A 
ATOM   1217  C2    G A  51     -24.296   3.845  40.440  1.00  0.00     0.703 A 
ATOM   1218  N2    G A  51     -24.387   3.253  39.247  1.00  0.00    -0.233 N 
ATOM   1219  N1    G A  51     -25.323   4.690  40.776  1.00  0.00    -0.153 N 
ATOM   1220  H22   G A  51     -25.174   3.435  38.641  1.00  0.00     0.174 HD
ATOM   1221  H21   G A  51     -23.654   2.622  38.954  1.00  0.00     0.174 HD
ATOM   1222  C6    G A  51     -25.414   5.402  41.967  1.00  0.00     0.292 A 
ATOM   1223  H1    G A  51     -26.071   4.807  40.108  1.00  0.00     0.187 HD
ATOM   1224  O6    G A  51     -26.385   6.138  42.168  1.00  0.00    -0.265 OA
ATOM   1225  N7    G A  51     -23.996   5.646  44.073  1.00  0.00    -0.234 NA
ATOM   1226  O2'   G A  51     -19.188   3.152  42.083  1.00  0.00    -0.388 OA
ATOM   1227 'HO2   G A  51     -18.289   3.478  42.137  1.00  0.00     0.210 HD
ATOM   1228  O3'   G A  51     -17.973   5.214  43.491  1.00  0.00    -0.279 OA
ATOM   1229  P     G A  52     -17.679   6.604  42.738  1.00  0.00     0.408 P 
ATOM   1230  O5'   G A  52     -18.427   6.452  41.338  1.00  0.00    -0.287 OA
ATOM   1231  OP2   G A  52     -18.335   7.697  43.501  1.00  0.00    -0.624 OA
ATOM   1232  OP1   G A  52     -16.218   6.666  42.478  1.00  0.00    -0.624 OA
ATOM   1233  C5'   G A  52     -17.887   5.629  40.306  1.00  0.00     0.216 C 
ATOM   1234  C4'   G A  52     -18.868   5.504  39.161  1.00  0.00     0.180 C 
ATOM   1235  O4'   G A  52     -20.181   5.148  39.668  1.00  0.00    -0.353 OA
ATOM   1236  C3'   G A  52     -19.147   6.773  38.373  1.00  0.00     0.198 C 
ATOM   1237  C1'   G A  52     -21.173   5.627  38.773  1.00  0.00     0.262 C 
ATOM   1238  C2'   G A  52     -20.461   6.429  37.681  1.00  0.00     0.199 C 
ATOM   1239  N9    G A  52     -22.141   6.417  39.527  1.00  0.00    -0.293 N 
ATOM   1240  O2'   G A  52     -20.246   5.580  36.568  1.00  0.00    -0.388 OA
ATOM   1241 'HO2   G A  52     -19.308   5.608  36.377  1.00  0.00     0.210 HD
ATOM   1242  C8    G A  52     -22.022   6.875  40.817  1.00  0.00     0.214 A 
ATOM   1243  C4    G A  52     -23.362   6.857  39.073  1.00  0.00     0.187 A 
ATOM   1244  N7    G A  52     -23.053   7.565  41.217  1.00  0.00    -0.234 NA
ATOM   1245  C5    G A  52     -23.911   7.564  40.123  1.00  0.00     0.173 A 
ATOM   1246  C6    G A  52     -25.192   8.153  39.955  1.00  0.00     0.292 A 
ATOM   1247  O6    G A  52     -25.850   8.816  40.765  1.00  0.00    -0.265 OA
ATOM   1248  N1    G A  52     -25.706   7.906  38.687  1.00  0.00    -0.153 N 
ATOM   1249  C2    G A  52     -25.074   7.185  37.708  1.00  0.00     0.703 A 
ATOM   1250  H1    G A  52     -26.615   8.288  38.475  1.00  0.00     0.187 HD
ATOM   1251  N2    G A  52     -25.730   7.060  36.552  1.00  0.00    -0.233 N 
ATOM   1252  N3    G A  52     -23.883   6.629  37.850  1.00  0.00    -0.044 NA
ATOM   1253  H21   G A  52     -25.308   6.539  35.797  1.00  0.00     0.174 HD
ATOM   1254  H22   G A  52     -26.639   7.485  36.431  1.00  0.00     0.174 HD
ATOM   1255  O3'   G A  52     -18.105   7.073  37.449  1.00  0.00    -0.279 OA
ATOM   1256  P     G A  53     -17.931   8.576  36.901  1.00  0.00     0.408 P 
ATOM   1257  OP2   G A  53     -17.984   9.509  38.054  1.00  0.00    -0.624 OA
ATOM   1258  OP1   G A  53     -16.745   8.583  36.006  1.00  0.00    -0.624 OA
ATOM   1259  O5'   G A  53     -19.228   8.815  36.005  1.00  0.00    -0.287 OA
ATOM   1260  C5'   G A  53     -19.476   8.017  34.849  1.00  0.00     0.216 C 
ATOM   1261  C4'   G A  53     -20.795   8.403  34.218  1.00  0.00     0.180 C 
ATOM   1262  C3'   G A  53     -20.983   9.880  33.915  1.00  0.00     0.198 C 
ATOM   1263  O4'   G A  53     -21.880   8.114  35.137  1.00  0.00    -0.353 OA
ATOM   1264  O3'   G A  53     -20.317  10.268  32.717  1.00  0.00    -0.279 OA
ATOM   1265  C2'   G A  53     -22.500   9.985  33.802  1.00  0.00     0.199 C 
ATOM   1266  P     T A  54     -19.953  11.816  32.471  1.00  0.00     0.408 P 
ATOM   1267  OP2   T A  54     -19.315  12.353  33.700  1.00  0.00    -0.624 OA
ATOM   1268  O5'   T A  54     -21.371  12.522  32.297  1.00  0.00    -0.287 OA
ATOM   1269  OP1   T A  54     -19.234  11.900  31.175  1.00  0.00    -0.624 OA
ATOM   1270  C5'   T A  54     -22.224  12.194  31.203  1.00  0.00     0.216 C 
ATOM   1271  C4'   T A  54     -23.510  12.983  31.286  1.00  0.00     0.180 C 
ATOM   1272  O4'   T A  54     -24.228  12.608  32.491  1.00  0.00    -0.353 OA
ATOM   1273  C3'   T A  54     -23.357  14.490  31.416  1.00  0.00     0.198 C 
ATOM   1274  C1'   T A  54     -24.957  13.723  32.974  1.00  0.00     0.264 C 
ATOM   1275  N1    T A  54     -24.551  13.983  34.362  1.00  0.00    -0.280 N 
ATOM   1276  C2'   T A  54     -24.691  14.897  32.029  1.00  0.00     0.199 C 
ATOM   1277  C6    T A  54     -23.345  13.534  34.854  1.00  0.00     0.104 A 
ATOM   1278  C2    T A  54     -25.423  14.698  35.162  1.00  0.00     0.331 A 
ATOM   1279  C5    T A  54     -22.958  13.760  36.114  1.00  0.00     0.092 A 
ATOM   1280  C4    T A  54     -23.805  14.495  37.000  1.00  0.00     0.250 A 
ATOM   1281  N3    T A  54     -24.991  14.912  36.444  1.00  0.00    -0.275 N 
ATOM   1282  O4    T A  54     -23.554  14.781  38.170  1.00  0.00    -0.268 OA
ATOM   1283  H3    T A  54     -25.614  15.437  37.040  1.00  0.00     0.173 HD
ATOM   1284  O2    T A  54     -26.498  15.111  34.766  1.00  0.00    -0.246 OA
ATOM   1285  O2'   T A  54     -25.713  14.931  31.052  1.00  0.00    -0.388 OA
ATOM   1286 'HO2   T A  54     -25.279  14.916  30.198  1.00  0.00     0.210 HD
ATOM   1287  O2'   G A  53     -22.952   9.500  32.552  1.00  0.00    -0.388 OA
ATOM   1288  C1'   G A  53     -22.950   9.014  34.895  1.00  0.00     0.262 C 
ATOM   1289 'HO2   G A  53     -22.177   9.409  31.996  1.00  0.00     0.210 HD
ATOM   1290  N9    G A  53     -23.295   9.674  36.150  1.00  0.00    -0.293 N 
ATOM   1291  C8    G A  53     -22.555   9.704  37.307  1.00  0.00     0.214 A 
ATOM   1292  C4    G A  53     -24.437  10.396  36.404  1.00  0.00     0.187 A 
ATOM   1293  N7    G A  53     -23.125  10.379  38.267  1.00  0.00    -0.234 NA
ATOM   1294  C5    G A  53     -24.317  10.824  37.709  1.00  0.00     0.173 A 
ATOM   1295  C6    G A  53     -25.361  11.609  38.268  1.00  0.00     0.292 A 
ATOM   1296  O6    G A  53     -25.444  12.085  39.407  1.00  0.00    -0.265 OA
ATOM   1297  N1    G A  53     -26.384  11.826  37.353  1.00  0.00    -0.153 N 
ATOM   1298  C2    G A  53     -26.405  11.351  36.067  1.00  0.00     0.703 A 
ATOM   1299  H1    G A  53     -27.171  12.376  37.662  1.00  0.00     0.187 HD
ATOM   1300  N3    G A  53     -25.443  10.619  35.534  1.00  0.00    -0.044 NA
ATOM   1301  N2    G A  53     -27.477  11.669  35.340  1.00  0.00    -0.233 N 
ATOM   1302  H22   G A  53     -28.219  12.230  35.737  1.00  0.00     0.174 HD
ATOM   1303  H21   G A  53     -27.543  11.345  34.386  1.00  0.00     0.174 HD
BRANCH 1273 1304
ATOM   1304  O3'   T A  54     -23.125  15.110  30.153  1.00  0.00    -0.279 OA
BRANCH 1304 1305
ATOM   1305  P     C A  55     -21.647  15.617  29.772  1.00  0.00     0.408 P 
ATOM   1306  OP2   C A  55     -21.019  14.609  28.880  1.00  0.00    -0.624 OA
ATOM   1307  OP1   C A  55     -21.767  17.026  29.317  1.00  0.00    -0.624 OA
BRANCH 1305 1308
ATOM   1308  O5'   C A  55     -20.863  15.607  31.160  1.00  0.00    -0.287 OA
BRANCH 1308 1309
ATOM   1309  C5'   C A  55     -19.442  15.726  31.202  1.00  0.00     0.216 C 
BRANCH 1309 1310
ATOM   1310  C4'   C A  55     -19.047  17.135  31.581  1.00  0.00     0.180 C 
ATOM   1311  O4'   C A  55     -20.129  17.744  32.333  1.00  0.00    -0.353 OA
ATOM   1312  C1'   C A  55     -19.596  18.593  33.335  1.00  0.00     0.264 C 
ATOM   1313  N1    C A  55     -20.057  18.111  34.647  1.00  0.00    -0.278 N 
ATOM   1314  C2'   C A  55     -18.074  18.597  33.182  1.00  0.00     0.199 C 
ATOM   1315  C2    C A  55     -20.237  19.035  35.679  1.00  0.00     0.352 A 
ATOM   1316  C6    C A  55     -20.306  16.784  34.859  1.00  0.00     0.102 A 
ATOM   1317  N3    C A  55     -20.660  18.603  36.888  1.00  0.00    -0.177 NA
ATOM   1318  O2    C A  55     -20.003  20.232  35.462  1.00  0.00    -0.244 OA
ATOM   1319  C4    C A  55     -20.904  17.307  37.084  1.00  0.00     0.128 A 
ATOM   1320  N4    C A  55     -21.322  16.929  38.290  1.00  0.00    -0.384 N 
ATOM   1321  C5    C A  55     -20.729  16.341  36.050  1.00  0.00     0.067 A 
ATOM   1322  H42   C A  55     -21.446  17.624  39.015  1.00  0.00     0.157 HD
ATOM   1323  H41   C A  55     -21.518  15.958  38.482  1.00  0.00     0.157 HD
ATOM   1324  C3'   C A  55     -17.838  17.255  32.498  1.00  0.00     0.198 C 
BRANCH 1314 1325
ATOM   1325  O2'   C A  55     -17.707  19.672  32.338  1.00  0.00    -0.388 OA
ATOM   1326 'HO2   C A  55     -16.752  19.737  32.373  1.00  0.00     0.210 HD
ENDBRANCH 1314 1325
BRANCH 1324 1327
ATOM   1327  O3'   C A  55     -16.618  17.228  31.762  1.00  0.00    -0.279 OA
BRANCH 1327 1328
ATOM   1328  P     A A  56     -15.511  16.107  32.089  1.00  0.00     0.408 P 
ATOM   1329  O5'   A A  56     -15.215  15.430  30.677  1.00  0.00    -0.287 OA
ATOM   1330  C5'   A A  56     -16.235  14.724  29.973  1.00  0.00     0.216 C 
ATOM   1331  C4'   A A  56     -15.637  13.965  28.810  1.00  0.00     0.180 C 
ATOM   1332  O4'   A A  56     -15.502  14.866  27.679  1.00  0.00    -0.353 OA
ATOM   1333  C3'   A A  56     -14.231  13.424  29.034  1.00  0.00     0.182 C 
ATOM   1334  C1'   A A  56     -14.321  14.559  26.961  1.00  0.00     0.262 C 
ATOM   1335  N9    A A  56     -13.458  15.739  26.970  1.00  0.00    -0.294 N 
ATOM   1336  C2'   A A  56     -13.686  13.329  27.613  1.00  0.00     0.198 C 
ATOM   1337  C4    A A  56     -12.760  16.244  25.900  1.00  0.00     0.167 A 
ATOM   1338  C8    A A  56     -13.173  16.566  28.029  1.00  0.00     0.214 A 
ATOM   1339  C5    A A  56     -12.086  17.352  26.380  1.00  0.00     0.149 A 
ATOM   1340  N3    A A  56     -12.730  15.765  24.645  1.00  0.00    -0.222 NA
ATOM   1341  C6    A A  56     -11.284  18.056  25.465  1.00  0.00     0.155 A 
ATOM   1342  N7    A A  56     -12.357  17.545  27.728  1.00  0.00    -0.236 NA
ATOM   1343  N1    A A  56     -11.233  17.601  24.195  1.00  0.00    -0.222 NA
ATOM   1344  N6    A A  56     -10.574  19.139  25.782  1.00  0.00    -0.382 N 
ATOM   1345  C2    A A  56     -11.942  16.512  23.875  1.00  0.00     0.237 A 
ATOM   1346  H61   A A  56     -10.595  19.498  26.725  1.00  0.00     0.157 HD
ATOM   1347  H62   A A  56     -10.023  19.601  25.073  1.00  0.00     0.157 HD
ATOM   1348  O2'   A A  56     -14.164  12.169  26.957  1.00  0.00    -0.388 OA
ATOM   1349 'HO2   A A  56     -14.341  11.518  27.637  1.00  0.00     0.210 HD
ATOM   1350  O3'   A A  56     -14.237  12.159  29.704  1.00  0.00    -0.390 OA
ATOM   1351 'HO3   A A  56     -14.720  12.277  30.525  1.00  0.00     0.210 HD
ATOM   1352  OP2   A A  56     -14.273  16.786  32.548  1.00  0.00    -0.624 OA
ATOM   1353  OP1   A A  56     -16.155  15.091  32.960  1.00  0.00    -0.624 OA
ENDBRANCH 1327 1328
ENDBRANCH 1324 1327
ENDBRANCH 1309 1310
ENDBRANCH 1308 1309
ENDBRANCH 1305 1308
ENDBRANCH 1304 1305
ENDBRANCH 1273 1304
ENDBRANCH 1158 1174
ENDBRANCH 1156 1157
ENDBRANCH 1155 1156
ENDBRANCH 1152 1155
ENDBRANCH 1151 1152
ENDBRANCH 1149 1151
ENDBRANCH 1134 1135
ENDBRANCH 1133 1134
ENDBRANCH 1130 1133
ENDBRANCH 1061 1130
ENDBRANCH 964 965
ENDBRANCH 963 964
ENDBRANCH 960 963
ENDBRANCH 959 960
ENDBRANCH 939 959
ENDBRANCH 937 938
ENDBRANCH 936 937
ENDBRANCH 933 936
ENDBRANCH 932 933
ENDBRANCH 844 932
BRANCH 927 1354
ATOM   1354  N4    C A  33      -2.191  -7.183  46.278  1.00  0.00    -0.384 N 
ATOM   1355  H42   C A  33      -2.762  -7.668  46.956  1.00  0.00     0.157 HD
ATOM   1356  H41   C A  33      -1.201  -7.064  46.444  1.00  0.00     0.157 HD
ENDBRANCH 927 1354
ENDBRANCH 742 743
ENDBRANCH 741 742
ENDBRANCH 738 741
ENDBRANCH 737 738
ENDBRANCH 703 737
ENDBRANCH 665 666
ENDBRANCH 664 665
ENDBRANCH 661 664
ENDBRANCH 660 661
ENDBRANCH 640 660
ENDBRANCH 638 639
ENDBRANCH 637 638
ENDBRANCH 634 637
ENDBRANCH 633 634
ENDBRANCH 588 633
BRANCH 561 1357
ATOM   1357  O2'   A A  24      -0.982   3.172  26.081  1.00  0.00    -0.388 OA
ATOM   1358 'HO2   A A  24      -1.425   4.018  26.003  1.00  0.00     0.210 HD
ENDBRANCH 561 1357
BRANCH 631 1359
ATOM   1359  N9    A A  24      -2.579   0.941  28.492  1.00  0.00    -0.294 N 
ATOM   1360  C8    A A  24      -2.239   0.224  29.613  1.00  0.00     0.214 A 
ATOM   1361  N7    A A  24      -3.226   0.077  30.465  1.00  0.00    -0.236 NA
ATOM   1362  C5    A A  24      -4.286   0.743  29.865  1.00  0.00     0.149 A 
ATOM   1363  C4    A A  24      -3.901   1.280  28.650  1.00  0.00     0.167 A 
ATOM   1364  C6    A A  24      -5.618   0.955  30.263  1.00  0.00     0.155 A 
ATOM   1365  N3    A A  24      -4.668   1.986  27.802  1.00  0.00    -0.222 NA
ATOM   1366  C2    A A  24      -5.901   2.120  28.287  1.00  0.00     0.237 A 
ATOM   1367  N1    A A  24      -6.414   1.662  29.435  1.00  0.00    -0.222 NA
ATOM   1368  N6    A A  24      -6.132   0.500  31.405  1.00  0.00    -0.382 N 
ATOM   1369  H62   A A  24      -7.100   0.689  31.624  1.00  0.00     0.157 HD
ATOM   1370  H61   A A  24      -5.558  -0.032  32.043  1.00  0.00     0.157 HD
ENDBRANCH 631 1359
ENDBRANCH 557 558
ENDBRANCH 556 557
ENDBRANCH 553 556
ENDBRANCH 552 553
ENDBRANCH 534 552
BRANCH 535 1371
ATOM   1371  O2'   G A  23       4.637  -0.781  33.592  1.00  0.00    -0.388 OA
ATOM   1372 'HO2   G A  23       5.302  -0.205  33.214  1.00  0.00     0.210 HD
ENDBRANCH 535 1371
ENDBRANCH 532 533
ENDBRANCH 531 532
ENDBRANCH 499 531
ENDBRANCH 484 485
ENDBRANCH 483 484
ENDBRANCH 480 483
ENDBRANCH 479 480
ENDBRANCH 465 479
BRANCH 467 1373
ATOM   1373  O2'   C A  20      -2.802  15.307  37.989  1.00  0.00    -0.388 OA
ATOM   1374 'HO2   C A  20      -2.042  14.990  38.477  1.00  0.00     0.210 HD
ENDBRANCH 467 1373
ENDBRANCH 462 463
ENDBRANCH 459 462
ENDBRANCH 458 459
ENDBRANCH 446 458
ENDBRANCH 441 442
ENDBRANCH 425 441
ENDBRANCH 299 300
ENDBRANCH 298 299
ENDBRANCH 295 298
ENDBRANCH 294 295
ENDBRANCH 291 294
ENDBRANCH 272 273
ENDBRANCH 271 272
ENDBRANCH 268 271
ENDBRANCH 267 268
ENDBRANCH 254 267
ENDBRANCH 249 250
ENDBRANCH 248 249
ENDBRANCH 245 248
ENDBRANCH 244 245
ENDBRANCH 227 244
ENDBRANCH 222 223
ENDBRANCH 206 222
ENDBRANCH 195 196
ENDBRANCH 194 195
ENDBRANCH 191 194
ENDBRANCH 190 191
ENDBRANCH 179 190
ENDBRANCH 173 174
ENDBRANCH 172 173
ENDBRANCH 169 172
ENDBRANCH 168 169
ENDBRANCH 167 168
TORSDOF 435
ENDMDL
MODEL 9
REMARK VINA RESULT:      -0.7      6.656     23.812
REMARK WARNING: 32 MAX_TORS EXCEEDED!!!
REMARK  104 active torsions:
REMARK  status: ('A' for Active; 'I' for Inactive)
REMARK       I    between atoms: O5'_2  and  C5'_3 
REMARK       I    between atoms: C5'_3  and  C4'_4 
REMARK       I    between atoms: C1'_6  and  N9_7 
REMARK       I    between atoms: C2_10  and  N2_11 
REMARK       I    between atoms: C2'_21  and  O2'_22 
REMARK       I    between atoms: C3'_24  and  O3'_25 
REMARK       I    between atoms: O3'_25  and  P_26 
REMARK       I    between atoms: P_26  and  O5'_29 
REMARK       I    between atoms: O5'_29  and  C5'_30 
REMARK       I    between atoms: C5'_30  and  C4'_31 
REMARK       I    between atoms: C1'_33  and  N9_34 
REMARK       I    between atoms: C6_39  and  N6_40 
REMARK       I    between atoms: C2'_46  and  O2'_47 
REMARK       I    between atoms: C3'_49  and  O3'_50 
REMARK       I    between atoms: O3'_50  and  P_51 
REMARK       I    between atoms: P_51  and  O5'_54 
REMARK       I    between atoms: O5'_54  and  C5'_55 
REMARK       I    between atoms: C5'_55  and  C4'_56 
REMARK       I    between atoms: C1'_58  and  N1_59 
REMARK       I    between atoms: C4_64  and  N4_65 
REMARK       I    between atoms: C2'_69  and  O2'_70 
REMARK       I    between atoms: C3'_72  and  O3'_73 
REMARK       I    between atoms: O3'_73  and  P_74 
REMARK       I    between atoms: P_74  and  O5'_77 
REMARK       I    between atoms: O5'_77  and  C5'_78 
REMARK       I    between atoms: C5'_78  and  C4'_79 
REMARK       I    between atoms: C1'_81  and  N1_82 
REMARK       I    between atoms: C4_87  and  N4_88 
REMARK       I    between atoms: C2'_92  and  O2'_93 
REMARK       I    between atoms: C3'_95  and  O3'_96 
REMARK       I    between atoms: O3'_96  and  P_97 
REMARK       I    between atoms: P_97  and  O5'_100 
REMARK       I    between atoms: O5'_100  and  C5'_101 
REMARK       I    between atoms: C5'_101  and  C4'_102 
REMARK       I    between atoms: C1'_104  and  N1_105 
REMARK       I    between atoms: C2'_114  and  O2'_115 
REMARK       I    between atoms: C3'_117  and  O3'_118 
REMARK       I    between atoms: O3'_118  and  P_119 
REMARK       I    between atoms: P_119  and  O5'_122 
REMARK       I    between atoms: O5'_122  and  C5'_123 
REMARK       I    between atoms: C5'_123  and  C4'_124 
REMARK       I    between atoms: C1'_126  and  N1_127 
REMARK       I    between atoms: C4_132  and  N4_133 
REMARK       I    between atoms: C2'_137  and  O2'_138 
REMARK       I    between atoms: C3'_140  and  O3'_141 
REMARK       I    between atoms: O3'_141  and  P_142 
REMARK       I    between atoms: P_142  and  O5'_145 
REMARK       I    between atoms: O5'_145  and  C5'_146 
REMARK       I    between atoms: C5'_146  and  C4'_147 
REMARK       I    between atoms: C1'_149  and  N9_150 
REMARK       I    between atoms: C2_153  and  N2_154 
REMARK       I    between atoms: C2'_164  and  O2'_165 
REMARK    1  A    between atoms: C3'_167  and  O3'_168 
REMARK    2  A    between atoms: O3'_168  and  P_169 
REMARK    3  A    between atoms: P_169  and  O5'_172 
REMARK    4  A    between atoms: O5'_172  and  C5'_173 
REMARK    5  A    between atoms: C5'_173  and  C4'_174 
REMARK       I    between atoms: C1'_176  and  N1_177 
REMARK    6  A    between atoms: C2'_186  and  O2'_187 
REMARK    7  A    between atoms: C3'_189  and  O3'_190 
REMARK    8  A    between atoms: O3'_190  and  P_191 
REMARK    9  A    between atoms: P_191  and  O5'_194 
REMARK   10  A    between atoms: O5'_194  and  C5'_195 
REMARK   11  A    between atoms: C5'_195  and  C4'_196 
REMARK       I    between atoms: C1'_198  and  N9_199 
REMARK       I    between atoms: C2_202  and  N2_203 
REMARK   12  A    between atoms: C2'_213  and  O2'_214 
REMARK       I    between atoms: C3'_216  and  O3'_217 
REMARK       I    between atoms: O3'_217  and  P_218 
REMARK       I    between atoms: P_218  and  O5'_221 
REMARK   13  A    between atoms: O5'_221  and  C5'_222 
REMARK   14  A    between atoms: C5'_222  and  C4'_223 
REMARK   15  A    between atoms: C1'_225  and  N9_226 
REMARK       I    between atoms: C2_229  and  N2_230 
REMARK   16  A    between atoms: C2'_240  and  O2'_241 
REMARK   17  A    between atoms: C3'_243  and  O3'_244 
REMARK   18  A    between atoms: O3'_244  and  P_245 
REMARK   19  A    between atoms: P_245  and  O5'_248 
REMARK   20  A    between atoms: O5'_248  and  C5'_249 
REMARK   21  A    between atoms: C5'_249  and  C4'_250 
REMARK   22  A    between atoms: C1'_252  and  N1_253 
REMARK       I    between atoms: C4_258  and  N4_259 
REMARK   23  A    between atoms: C2'_263  and  O2'_264 
REMARK   24  A    between atoms: C3'_266  and  O3'_267 
REMARK   25  A    between atoms: O3'_267  and  P_268 
REMARK   26  A    between atoms: P_268  and  O5'_271 
REMARK   27  A    between atoms: O5'_271  and  C5'_272 
REMARK   28  A    between atoms: C5'_272  and  C4'_273 
REMARK       I    between atoms: C1'_275  and  N9_276 
REMARK       I    between atoms: C2_279  and  N2_280 
REMARK   29  A    between atoms: C2'_290  and  O2'_291 
REMARK   30  A    between atoms: C3'_293  and  O3'_294 
REMARK   31  A    between atoms: O3'_294  and  P_295 
REMARK   32  A    between atoms: P_295  and  O5'_298 
REMARK   33  A    between atoms: O5'_298  and  C5'_299 
REMARK   34  A    between atoms: C5'_299  and  C4'_300 
REMARK       I    between atoms: C1'_302  and  N1_303 
REMARK       I    between atoms: C2'_312  and  O2'_313 
REMARK       I    between atoms: C3'_315  and  O3'_316 
REMARK       I    between atoms: O3'_316  and  P_317 
REMARK       I    between atoms: P_317  and  O5'_320 
REMARK       I    between atoms: O5'_320  and  C5'_321 
REMARK       I    between atoms: C5'_321  and  C4'_322 
REMARK       I    between atoms: C1'_324  and  N1_325 
REMARK       I    between atoms: C4_330  and  N4_331 
REMARK       I    between atoms: C2'_335  and  O2'_336 
REMARK       I    between atoms: C3'_338  and  O3'_339 
REMARK       I    between atoms: O3'_339  and  P_340 
REMARK       I    between atoms: P_340  and  O5'_343 
REMARK       I    between atoms: O5'_343  and  C5'_344 
REMARK       I    between atoms: C5'_344  and  C4'_345 
REMARK       I    between atoms: C1'_347  and  N1_348 
REMARK       I    between atoms: C2'_357  and  O2'_358 
REMARK       I    between atoms: C3'_360  and  O3'_361 
REMARK       I    between atoms: O3'_361  and  P_362 
REMARK       I    between atoms: P_362  and  O5'_365 
REMARK       I    between atoms: O5'_365  and  C5'_366 
REMARK       I    between atoms: C5'_366  and  C4'_367 
REMARK       I    between atoms: C1'_369  and  N9_370 
REMARK       I    between atoms: C2_373  and  N2_374 
REMARK       I    between atoms: C2'_384  and  O2'_385 
REMARK       I    between atoms: C3'_387  and  O3'_388 
REMARK       I    between atoms: O3'_388  and  P_389 
REMARK       I    between atoms: P_389  and  O5'_392 
REMARK       I    between atoms: O5'_392  and  C5'_393 
REMARK       I    between atoms: C5'_393  and  C4'_394 
REMARK       I    between atoms: C1'_396  and  N9_397 
REMARK       I    between atoms: C6_402  and  N6_403 
REMARK       I    between atoms: C2'_409  and  O2'_410 
REMARK       I    between atoms: C3'_412  and  O3'_413 
REMARK       I    between atoms: O3'_413  and  P_414 
REMARK       I    between atoms: P_414  and  O5'_417 
REMARK       I    between atoms: O5'_417  and  C5'_418 
REMARK       I    between atoms: C5'_418  and  C4'_419 
REMARK       I    between atoms: C1'_421  and  N1_422 
REMARK       I    between atoms: C4_427  and  N4_428 
REMARK       I    between atoms: C2'_432  and  O2'_433 
REMARK       I    between atoms: C3'_435  and  O3'_436 
REMARK       I    between atoms: O3'_436  and  P_437 
REMARK       I    between atoms: P_437  and  O5'_440 
REMARK   35  A    between atoms: O5'_440  and  C5'_441 
REMARK   36  A    between atoms: C5'_441  and  C4'_442 
REMARK   37  A    between atoms: C1'_444  and  N1_445 
REMARK   38  A    between atoms: C2'_454  and  O2'_455 
REMARK   39  A    between atoms: C3'_457  and  O3'_458 
REMARK   40  A    between atoms: O3'_458  and  P_459 
REMARK   41  A    between atoms: P_459  and  O5'_462 
REMARK   42  A    between atoms: O5'_462  and  C5'_463 
REMARK       I    between atoms: C5'_463  and  C4'_464 
REMARK       I    between atoms: C1'_466  and  N1_467 
REMARK       I    between atoms: C4_472  and  N4_473 
REMARK   43  A    between atoms: C2'_477  and  O2'_478 
REMARK   44  A    between atoms: C3'_480  and  O3'_481 
REMARK   45  A    between atoms: O3'_481  and  P_482 
REMARK   46  A    between atoms: P_482  and  O5'_485 
REMARK   47  A    between atoms: O5'_485  and  C5'_486 
REMARK   48  A    between atoms: C5'_486  and  C4'_487 
REMARK       I    between atoms: C1'_489  and  N1_490 
REMARK       I    between atoms: C4_495  and  N4_496 
REMARK       I    between atoms: C2'_500  and  O2'_501 
REMARK       I    between atoms: C3'_503  and  O3'_504 
REMARK       I    between atoms: O3'_504  and  P_505 
REMARK       I    between atoms: P_505  and  O5'_508 
REMARK       I    between atoms: O5'_508  and  C5'_509 
REMARK       I    between atoms: C5'_509  and  C4'_510 
REMARK       I    between atoms: C1'_512  and  N9_513 
REMARK       I    between atoms: C6_518  and  N6_519 
REMARK       I    between atoms: C2'_525  and  O2'_526 
REMARK       I    between atoms: C3'_528  and  O3'_529 
REMARK       I    between atoms: O3'_529  and  P_530 
REMARK   49  A    between atoms: P_530  and  O5'_533 
REMARK   50  A    between atoms: O5'_533  and  C5'_534 
REMARK   51  A    between atoms: C5'_534  and  C4'_535 
REMARK       I    between atoms: C1'_537  and  N9_538 
REMARK       I    between atoms: C2_541  and  N2_542 
REMARK   52  A    between atoms: C2'_552  and  O2'_553 
REMARK   53  A    between atoms: C3'_555  and  O3'_556 
REMARK   54  A    between atoms: O3'_556  and  P_557 
REMARK   55  A    between atoms: P_557  and  O5'_560 
REMARK   56  A    between atoms: O5'_560  and  C5'_561 
REMARK   57  A    between atoms: C5'_561  and  C4'_562 
REMARK   58  A    between atoms: C1'_564  and  N9_565 
REMARK       I    between atoms: C6_570  and  N6_571 
REMARK   59  A    between atoms: C2'_577  and  O2'_578 
REMARK       I    between atoms: C3'_580  and  O3'_581 
REMARK       I    between atoms: O3'_581  and  P_582 
REMARK       I    between atoms: P_582  and  O5'_585 
REMARK       I    between atoms: O5'_585  and  C5'_586 
REMARK       I    between atoms: C5'_586  and  C4'_587 
REMARK       I    between atoms: C1'_589  and  N1_590 
REMARK       I    between atoms: C2'_599  and  O2'_600 
REMARK       I    between atoms: C3'_602  and  O3'_603 
REMARK       I    between atoms: O3'_603  and  P_604 
REMARK       I    between atoms: P_604  and  O5'_607 
REMARK       I    between atoms: O5'_607  and  C5'_608 
REMARK       I    between atoms: C5'_608  and  C4'_609 
REMARK       I    between atoms: C1'_611  and  N1_612 
REMARK       I    between atoms: C4_617  and  N4_618 
REMARK       I    between atoms: C2'_622  and  O2'_623 
REMARK       I    between atoms: C3'_625  and  O3'_626 
REMARK       I    between atoms: O3'_626  and  P_627 
REMARK       I    between atoms: P_627  and  O5'_630 
REMARK       I    between atoms: O5'_630  and  C5'_631 
REMARK       I    between atoms: C5'_631  and  C4'_632 
REMARK       I    between atoms: C1'_634  and  N9_635 
REMARK       I    between atoms: C6_640  and  N6_641 
REMARK       I    between atoms: C2'_647  and  O2'_648 
REMARK   60  A    between atoms: C3'_650  and  O3'_651 
REMARK   61  A    between atoms: O3'_651  and  P_652 
REMARK   62  A    between atoms: P_652  and  O5'_655 
REMARK   63  A    between atoms: O5'_655  and  C5'_656 
REMARK   64  A    between atoms: C5'_656  and  C4'_657 
REMARK       I    between atoms: C1'_659  and  N9_660 
REMARK       I    between atoms: C2_663  and  N2_664 
REMARK       I    between atoms: C2'_674  and  O2'_675 
REMARK   65  A    between atoms: C3'_677  and  O3'_678 
REMARK   66  A    between atoms: O3'_678  and  P_679 
REMARK   67  A    between atoms: P_679  and  O5'_682 
REMARK   68  A    between atoms: O5'_682  and  C5'_683 
REMARK   69  A    between atoms: C5'_683  and  C4'_684 
REMARK       I    between atoms: C1'_686  and  N9_687 
REMARK       I    between atoms: C6_692  and  N6_693 
REMARK       I    between atoms: C2'_699  and  O2'_700 
REMARK       I    between atoms: C3'_702  and  O3'_703 
REMARK       I    between atoms: O3'_703  and  P_704 
REMARK       I    between atoms: P_704  and  O5'_707 
REMARK       I    between atoms: O5'_707  and  C5'_708 
REMARK       I    between atoms: C5'_708  and  C4'_709 
REMARK       I    between atoms: C1'_711  and  N9_712 
REMARK       I    between atoms: C6_717  and  N6_718 
REMARK       I    between atoms: C2'_724  and  O2'_725 
REMARK       I    between atoms: C3'_727  and  O3'_728 
REMARK       I    between atoms: O3'_728  and  P_729 
REMARK       I    between atoms: P_729  and  O5'_732 
REMARK       I    between atoms: O5'_732  and  C5'_733 
REMARK       I    between atoms: C5'_733  and  C4'_734 
REMARK       I    between atoms: C1'_736  and  N9_737 
REMARK       I    between atoms: C2_740  and  N2_741 
REMARK       I    between atoms: C2'_751  and  O2'_752 
REMARK   70  A    between atoms: C3'_754  and  O3'_755 
REMARK   71  A    between atoms: O3'_755  and  P_756 
REMARK   72  A    between atoms: P_756  and  O5'_759 
REMARK   73  A    between atoms: O5'_759  and  C5'_760 
REMARK   74  A    between atoms: C5'_760  and  C4'_761 
REMARK       I    between atoms: C1'_763  and  N9_764 
REMARK       I    between atoms: C2_767  and  N2_768 
REMARK       I    between atoms: C2'_778  and  O2'_779 
REMARK       I    between atoms: C3'_781  and  O3'_782 
REMARK       I    between atoms: O3'_782  and  P_783 
REMARK       I    between atoms: P_783  and  O5'_786 
REMARK       I    between atoms: O5'_786  and  C5'_787 
REMARK       I    between atoms: C5'_787  and  C4'_788 
REMARK       I    between atoms: C1'_790  and  N1_791 
REMARK   75  A    between atoms: C4_796  and  N4_797 
REMARK       I    between atoms: C2'_801  and  O2'_802 
REMARK       I    between atoms: C3'_804  and  O3'_805 
REMARK       I    between atoms: O3'_805  and  P_806 
REMARK       I    between atoms: P_806  and  O5'_809 
REMARK       I    between atoms: O5'_809  and  C5'_810 
REMARK       I    between atoms: C5'_810  and  C4'_811 
REMARK       I    between atoms: C1'_813  and  N1_814 
REMARK       I    between atoms: C2'_823  and  O2'_824 
REMARK       I    between atoms: C3'_826  and  O3'_827 
REMARK       I    between atoms: O3'_827  and  P_828 
REMARK       I    between atoms: P_828  and  O5'_831 
REMARK       I    between atoms: O5'_831  and  C5'_832 
REMARK       I    between atoms: C5'_832  and  C4'_833 
REMARK       I    between atoms: C1'_835  and  N9_836 
REMARK       I    between atoms: C2_839  and  N2_840 
REMARK       I    between atoms: C2'_850  and  O2'_851 
REMARK       I    between atoms: C3'_853  and  O3'_854 
REMARK       I    between atoms: O3'_854  and  P_855 
REMARK       I    between atoms: P_855  and  O5'_858 
REMARK       I    between atoms: O5'_858  and  C5'_859 
REMARK       I    between atoms: C5'_859  and  C4'_860 
REMARK       I    between atoms: C1'_862  and  N1_863 
REMARK       I    between atoms: C4_868  and  N4_869 
REMARK       I    between atoms: C2'_873  and  O2'_874 
REMARK       I    between atoms: C3'_876  and  O3'_877 
REMARK       I    between atoms: O3'_877  and  P_878 
REMARK       I    between atoms: P_878  and  O5'_881 
REMARK       I    between atoms: O5'_881  and  C5'_882 
REMARK       I    between atoms: C5'_882  and  C4'_883 
REMARK       I    between atoms: C1'_885  and  N9_886 
REMARK       I    between atoms: C2_889  and  N2_890 
REMARK       I    between atoms: C2'_900  and  O2'_901 
REMARK       I    between atoms: C3'_903  and  O3'_904 
REMARK       I    between atoms: O3'_904  and  P_905 
REMARK       I    between atoms: P_905  and  O5'_908 
REMARK       I    between atoms: O5'_908  and  C5'_909 
REMARK       I    between atoms: C5'_909  and  C4'_910 
REMARK       I    between atoms: C1'_912  and  N1_913 
REMARK       I    between atoms: C2'_922  and  O2'_923 
REMARK       I    between atoms: C3'_925  and  O3'_926 
REMARK       I    between atoms: O3'_926  and  P_927 
REMARK       I    between atoms: P_927  and  O5'_930 
REMARK       I    between atoms: O5'_930  and  C5'_931 
REMARK       I    between atoms: C5'_931  and  C4'_932 
REMARK       I    between atoms: C1'_934  and  N9_935 
REMARK       I    between atoms: C2_938  and  N2_939 
REMARK   76  A    between atoms: C2'_949  and  O2'_950 
REMARK   77  A    between atoms: C3'_952  and  O3'_953 
REMARK   78  A    between atoms: O3'_953  and  P_954 
REMARK   79  A    between atoms: P_954  and  O5'_957 
REMARK   80  A    between atoms: O5'_957  and  C5'_958 
REMARK   81  A    between atoms: C5'_958  and  C4'_959 
REMARK       I    between atoms: C1'_961  and  N9_962 
REMARK       I    between atoms: C2_965  and  N2_966 
REMARK       I    between atoms: C2'_976  and  O2'_977 
REMARK   82  A    between atoms: C3'_979  and  O3'_980 
REMARK   83  A    between atoms: O3'_980  and  P_981 
REMARK   84  A    between atoms: P_981  and  O5'_984 
REMARK   85  A    between atoms: O5'_984  and  C5'_985 
REMARK   86  A    between atoms: C5'_985  and  C4'_986 
REMARK       I    between atoms: C1'_988  and  N9_989 
REMARK       I    between atoms: C6_994  and  N6_995 
REMARK       I    between atoms: C2'_1001  and  O2'_1002 
REMARK       I    between atoms: C3'_1004  and  O3'_1005 
REMARK       I    between atoms: O3'_1005  and  P_1006 
REMARK       I    between atoms: P_1006  and  O5'_1009 
REMARK       I    between atoms: O5'_1009  and  C5'_1010 
REMARK       I    between atoms: C5'_1010  and  C4'_1011 
REMARK       I    between atoms: C1'_1013  and  N9_1014 
REMARK       I    between atoms: C6_1019  and  N6_1020 
REMARK       I    between atoms: C2'_1026  and  O2'_1027 
REMARK       I    between atoms: C3'_1029  and  O3'_1030 
REMARK       I    between atoms: O3'_1030  and  P_1031 
REMARK       I    between atoms: P_1031  and  O5'_1034 
REMARK       I    between atoms: O5'_1034  and  C5'_1035 
REMARK       I    between atoms: C5'_1035  and  C4'_1036 
REMARK       I    between atoms: C1'_1038  and  N1_1039 
REMARK       I    between atoms: C2'_1048  and  O2'_1049 
REMARK       I    between atoms: C3'_1051  and  O3'_1052 
REMARK       I    between atoms: O3'_1052  and  P_1053 
REMARK       I    between atoms: P_1053  and  O5'_1056 
REMARK       I    between atoms: O5'_1056  and  C5'_1057 
REMARK       I    between atoms: C5'_1057  and  C4'_1058 
REMARK       I    between atoms: C1'_1060  and  N1_1061 
REMARK       I    between atoms: C4_1066  and  N4_1067 
REMARK       I    between atoms: C2'_1071  and  O2'_1072 
REMARK       I    between atoms: C3'_1074  and  O3'_1075 
REMARK       I    between atoms: O3'_1075  and  P_1076 
REMARK       I    between atoms: P_1076  and  O5'_1079 
REMARK       I    between atoms: O5'_1079  and  C5'_1080 
REMARK       I    between atoms: C5'_1080  and  C4'_1081 
REMARK       I    between atoms: C1'_1083  and  N9_1084 
REMARK       I    between atoms: C6_1089  and  N6_1090 
REMARK       I    between atoms: C2'_1096  and  O2'_1097 
REMARK       I    between atoms: C3'_1099  and  O3'_1100 
REMARK       I    between atoms: O3'_1100  and  P_1101 
REMARK       I    between atoms: P_1101  and  O5'_1104 
REMARK       I    between atoms: O5'_1104  and  C5'_1105 
REMARK       I    between atoms: C5'_1105  and  C4'_1106 
REMARK       I    between atoms: C1'_1108  and  N1_1109 
REMARK       I    between atoms: C4_1114  and  N4_1115 
REMARK       I    between atoms: C2'_1119  and  O2'_1120 
REMARK       I    between atoms: C3'_1122  and  O3'_1123 
REMARK       I    between atoms: O3'_1123  and  P_1124 
REMARK       I    between atoms: P_1124  and  O5'_1127 
REMARK       I    between atoms: O5'_1127  and  C5'_1128 
REMARK       I    between atoms: C5'_1128  and  C4'_1129 
REMARK       I    between atoms: C1'_1131  and  N9_1132 
REMARK       I    between atoms: C2_1135  and  N2_1136 
REMARK       I    between atoms: C2'_1146  and  O2'_1147 
REMARK       I    between atoms: C3'_1149  and  O3'_1150 
REMARK   87  A    between atoms: O3'_1150  and  P_1151 
REMARK   88  A    between atoms: P_1151  and  O5'_1154 
REMARK   89  A    between atoms: O5'_1154  and  C5'_1155 
REMARK   90  A    between atoms: C5'_1155  and  C4'_1156 
REMARK       I    between atoms: C1'_1158  and  N1_1159 
REMARK       I    between atoms: C2'_1168  and  O2'_1169 
REMARK   91  A    between atoms: C3'_1171  and  O3'_1172 
REMARK   92  A    between atoms: O3'_1172  and  P_1173 
REMARK   93  A    between atoms: P_1173  and  O5'_1176 
REMARK   94  A    between atoms: O5'_1176  and  C5'_1177 
REMARK   95  A    between atoms: C5'_1177  and  C4'_1178 
REMARK       I    between atoms: C1'_1180  and  N1_1181 
REMARK       I    between atoms: C4_1186  and  N4_1187 
REMARK       I    between atoms: C2'_1191  and  O2'_1192 
REMARK   96  A    between atoms: C3'_1194  and  O3'_1195 
REMARK       I    between atoms: O3'_1195  and  P_1196 
REMARK       I    between atoms: P_1196  and  O5'_1199 
REMARK       I    between atoms: O5'_1199  and  C5'_1200 
REMARK       I    between atoms: C5'_1200  and  C4'_1201 
REMARK       I    between atoms: C1'_1203  and  N9_1204 
REMARK       I    between atoms: C2_1207  and  N2_1208 
REMARK       I    between atoms: C2'_1218  and  O2'_1219 
REMARK       I    between atoms: C3'_1221  and  O3'_1222 
REMARK       I    between atoms: O3'_1222  and  P_1223 
REMARK       I    between atoms: P_1223  and  O5'_1226 
REMARK       I    between atoms: O5'_1226  and  C5'_1227 
REMARK       I    between atoms: C5'_1227  and  C4'_1228 
REMARK       I    between atoms: C1'_1230  and  N9_1231 
REMARK       I    between atoms: C2_1234  and  N2_1235 
REMARK       I    between atoms: C2'_1245  and  O2'_1246 
REMARK       I    between atoms: C3'_1248  and  O3'_1249 
REMARK       I    between atoms: O3'_1249  and  P_1250 
REMARK       I    between atoms: P_1250  and  O5'_1253 
REMARK       I    between atoms: O5'_1253  and  C5'_1254 
REMARK       I    between atoms: C5'_1254  and  C4'_1255 
REMARK       I    between atoms: C1'_1257  and  N9_1258 
REMARK       I    between atoms: C2_1261  and  N2_1262 
REMARK       I    between atoms: C2'_1272  and  O2'_1273 
REMARK       I    between atoms: C3'_1275  and  O3'_1276 
REMARK       I    between atoms: O3'_1276  and  P_1277 
REMARK       I    between atoms: P_1277  and  O5'_1280 
REMARK       I    between atoms: O5'_1280  and  C5'_1281 
REMARK       I    between atoms: C5'_1281  and  C4'_1282 
REMARK       I    between atoms: C1'_1284  and  N9_1285 
REMARK       I    between atoms: C2_1288  and  N2_1289 
REMARK       I    between atoms: C2'_1299  and  O2'_1300 
REMARK       I    between atoms: C3'_1302  and  O3'_1303 
REMARK       I    between atoms: O3'_1303  and  P_1304 
REMARK       I    between atoms: P_1304  and  O5'_1307 
REMARK       I    between atoms: O5'_1307  and  C5'_1308 
REMARK       I    between atoms: C5'_1308  and  C4'_1309 
REMARK       I    between atoms: C1'_1311  and  N1_1312 
REMARK       I    between atoms: C2'_1321  and  O2'_1322 
REMARK   97  A    between atoms: C3'_1324  and  O3'_1325 
REMARK   98  A    between atoms: O3'_1325  and  P_1326 
REMARK   99  A    between atoms: P_1326  and  O5'_1329 
REMARK  100  A    between atoms: O5'_1329  and  C5'_1330 
REMARK  101  A    between atoms: C5'_1330  and  C4'_1331 
REMARK       I    between atoms: C1'_1333  and  N1_1334 
REMARK       I    between atoms: C4_1339  and  N4_1340 
REMARK  102  A    between atoms: C2'_1344  and  O2'_1345 
REMARK  103  A    between atoms: C3'_1347  and  O3'_1348 
REMARK  104  A    between atoms: O3'_1348  and  P_1349 
REMARK       I    between atoms: P_1349  and  O5'_1352 
REMARK       I    between atoms: O5'_1352  and  C5'_1353 
REMARK       I    between atoms: C5'_1353  and  C4'_1354 
REMARK       I    between atoms: C1'_1356  and  N9_1357 
REMARK       I    between atoms: C6_1362  and  N6_1363 
REMARK       I    between atoms: C2'_1369  and  O2'_1370 
REMARK       I    between atoms: C3'_1372  and  O3'_1373 
ROOT
ATOM      1 'HO5   G A   1     -14.754  24.538  64.346  1.00  0.00     0.209 HD
ATOM      2  O5'   G A   1     -15.237  23.839  63.897  1.00  0.00    -0.398 OA
ATOM      3  C5'   G A   1     -15.785  24.411  62.706  1.00  0.00     0.198 C 
ATOM      4  C4'   G A   1     -14.922  25.546  62.201  1.00  0.00     0.180 C 
ATOM      5  O4'   G A   1     -13.970  25.917  63.241  1.00  0.00    -0.353 OA
ATOM      6  C1'   G A   1     -12.686  26.097  62.670  1.00  0.00     0.262 C 
ATOM      7  N9    G A   1     -11.832  24.991  63.097  1.00  0.00    -0.293 N 
ATOM      8  C4    G A   1     -10.473  24.895  62.917  1.00  0.00     0.187 A 
ATOM      9  N3    G A   1      -9.686  25.812  62.318  1.00  0.00    -0.044 NA
ATOM     10  C2    G A   1      -8.420  25.435  62.297  1.00  0.00     0.703 A 
ATOM     11  N2    G A   1      -7.502  26.229  61.741  1.00  0.00    -0.233 N 
ATOM     12  H21   G A   1      -7.785  27.111  61.341  1.00  0.00     0.174 HD
ATOM     13  H22   G A   1      -6.531  25.950  61.725  1.00  0.00     0.174 HD
ATOM     14  N1    G A   1      -7.961  24.254  62.821  1.00  0.00    -0.153 N 
ATOM     15  H1    G A   1      -6.973  24.065  62.753  1.00  0.00     0.187 HD
ATOM     16  C6    G A   1      -8.753  23.293  63.439  1.00  0.00     0.292 A 
ATOM     17  O6    G A   1      -8.235  22.257  63.874  1.00  0.00    -0.265 OA
ATOM     18  C5    G A   1     -10.116  23.684  63.473  1.00  0.00     0.173 A 
ATOM     19  N7    G A   1     -11.227  23.033  63.992  1.00  0.00    -0.234 NA
ATOM     20  C8    G A   1     -12.218  23.845  63.746  1.00  0.00     0.214 A 
ATOM     21  C2'   G A   1     -12.882  26.166  61.158  1.00  0.00     0.199 C 
ATOM     22  O2'   G A   1     -13.226  27.492  60.803  1.00  0.00    -0.388 OA
ATOM     23 'HO2   G A   1     -13.518  27.469  59.892  1.00  0.00     0.210 HD
ATOM     24  C3'   G A   1     -14.062  25.220  60.986  1.00  0.00     0.198 C 
ATOM     25  O3'   G A   1     -14.765  25.439  59.766  1.00  0.00    -0.279 OA
ATOM     26  P     A A   2     -14.510  24.466  58.510  1.00  0.00     0.408 P 
ATOM     27  OP1   A A   2     -15.472  24.857  57.449  1.00  0.00    -0.624 OA
ATOM     28  OP2   A A   2     -14.487  23.064  58.998  1.00  0.00    -0.624 OA
ATOM     29  O5'   A A   2     -13.043  24.848  58.019  1.00  0.00    -0.287 OA
ATOM     30  C5'   A A   2     -12.758  26.141  57.491  1.00  0.00     0.216 C 
ATOM     31  C4'   A A   2     -11.302  26.236  57.097  1.00  0.00     0.180 C 
ATOM     32  O4'   A A   2     -10.484  26.216  58.299  1.00  0.00    -0.353 OA
ATOM     33  C1'   A A   2      -9.301  25.473  58.056  1.00  0.00     0.262 C 
ATOM     34  N9    A A   2      -9.306  24.299  58.929  1.00  0.00    -0.294 N 
ATOM     35  C4    A A   2      -8.217  23.531  59.263  1.00  0.00     0.167 A 
ATOM     36  N3    A A   2      -6.945  23.701  58.862  1.00  0.00    -0.222 NA
ATOM     37  C2    A A   2      -6.158  22.764  59.385  1.00  0.00     0.237 A 
ATOM     38  N1    A A   2      -6.475  21.750  60.201  1.00  0.00    -0.222 NA
ATOM     39  C6    A A   2      -7.762  21.606  60.583  1.00  0.00     0.155 A 
ATOM     40  N6    A A   2      -8.077  20.597  61.396  1.00  0.00    -0.382 N 
ATOM     41  H61   A A   2      -9.033  20.472  61.694  1.00  0.00     0.157 HD
ATOM     42  H62   A A   2      -7.361  19.957  61.713  1.00  0.00     0.157 HD
ATOM     43  C5    A A   2      -8.696  22.538  60.099  1.00  0.00     0.149 A 
ATOM     44  N7    A A   2     -10.064  22.678  60.290  1.00  0.00    -0.236 NA
ATOM     45  C8    A A   2     -10.375  23.734  59.578  1.00  0.00     0.214 A 
ATOM     46  C2'   A A   2      -9.278  25.125  56.569  1.00  0.00     0.199 C 
ATOM     47  O2'   A A   2      -8.637  26.174  55.867  1.00  0.00    -0.388 OA
ATOM     48 'HO2   A A   2      -9.061  26.233  55.010  1.00  0.00     0.210 HD
ATOM     49  C3'   A A   2     -10.769  25.083  56.259  1.00  0.00     0.198 C 
ATOM     50  O3'   A A   2     -11.044  25.264  54.873  1.00  0.00    -0.279 OA
ATOM     51  P     C A   3     -11.259  23.980  53.926  1.00  0.00     0.408 P 
ATOM     52  OP1   C A   3     -11.727  24.481  52.608  1.00  0.00    -0.624 OA
ATOM     53  OP2   C A   3     -12.074  22.980  54.661  1.00  0.00    -0.624 OA
ATOM     54  O5'   C A   3      -9.791  23.388  53.741  1.00  0.00    -0.287 OA
ATOM     55  C5'   C A   3      -8.803  24.096  52.994  1.00  0.00     0.216 C 
ATOM     56  C4'   C A   3      -7.437  23.490  53.225  1.00  0.00     0.180 C 
ATOM     57  O4'   C A   3      -7.160  23.450  54.652  1.00  0.00    -0.353 OA
ATOM     58  C1'   C A   3      -6.373  22.308  54.951  1.00  0.00     0.264 C 
ATOM     59  N1    C A   3      -7.110  21.463  55.905  1.00  0.00    -0.278 N 
ATOM     60  C6    C A   3      -8.447  21.649  56.125  1.00  0.00     0.102 A 
ATOM     61  C2    C A   3      -6.419  20.454  56.583  1.00  0.00     0.352 A 
ATOM     62  O2    C A   3      -5.208  20.305  56.368  1.00  0.00    -0.244 OA
ATOM     63  N3    C A   3      -7.086  19.666  57.454  1.00  0.00    -0.177 NA
ATOM     64  C4    C A   3      -8.389  19.856  57.662  1.00  0.00     0.128 A 
ATOM     65  N4    C A   3      -9.004  19.052  58.529  1.00  0.00    -0.384 N 
ATOM     66  H41   C A   3      -9.990  19.160  58.714  1.00  0.00     0.157 HD
ATOM     67  H42   C A   3      -8.476  18.329  58.999  1.00  0.00     0.157 HD
ATOM     68  C5    C A   3      -9.121  20.878  56.988  1.00  0.00     0.067 A 
ATOM     69  C2'   C A   3      -6.073  21.604  53.627  1.00  0.00     0.199 C 
ATOM     70  O2'   C A   3      -4.863  22.121  53.104  1.00  0.00    -0.388 OA
ATOM     71 'HO2   C A   3      -5.066  22.487  52.241  1.00  0.00     0.210 HD
ATOM     72  C3'   C A   3      -7.268  22.040  52.792  1.00  0.00     0.198 C 
ATOM     73  O3'   C A   3      -7.030  21.915  51.392  1.00  0.00    -0.279 OA
ATOM     74  P     C A   4      -7.343  20.522  50.648  1.00  0.00     0.408 P 
ATOM     75  OP1   C A   4      -7.346  20.781  49.188  1.00  0.00    -0.624 OA
ATOM     76  OP2   C A   4      -8.537  19.910  51.286  1.00  0.00    -0.624 OA
ATOM     77  O5'   C A   4      -6.082  19.606  50.989  1.00  0.00    -0.287 OA
ATOM     78  C5'   C A   4      -4.750  20.101  50.844  1.00  0.00     0.216 C 
ATOM     79  C4'   C A   4      -3.749  19.021  51.187  1.00  0.00     0.180 C 
ATOM     80  O4'   C A   4      -3.601  18.963  52.634  1.00  0.00    -0.353 OA
ATOM     81  C1'   C A   4      -3.569  17.611  53.059  1.00  0.00     0.264 C 
ATOM     82  N1    C A   4      -4.811  17.325  53.798  1.00  0.00    -0.278 N 
ATOM     83  C6    C A   4      -5.963  18.008  53.522  1.00  0.00     0.102 A 
ATOM     84  C2    C A   4      -4.799  16.336  54.787  1.00  0.00     0.352 A 
ATOM     85  O2    C A   4      -3.742  15.732  55.021  1.00  0.00    -0.244 OA
ATOM     86  N3    C A   4      -5.937  16.064  55.464  1.00  0.00    -0.177 NA
ATOM     87  C4    C A   4      -7.055  16.737  55.187  1.00  0.00     0.128 A 
ATOM     88  N4    C A   4      -8.152  16.432  55.877  1.00  0.00    -0.384 N 
ATOM     89  H41   C A   4      -9.021  16.914  55.698  1.00  0.00     0.157 HD
ATOM     90  H42   C A   4      -8.115  15.709  56.584  1.00  0.00     0.157 HD
ATOM     91  C5    C A   4      -7.097  17.751  54.186  1.00  0.00     0.067 A 
ATOM     92  C2'   C A   4      -3.390  16.761  51.805  1.00  0.00     0.199 C 
ATOM     93  O2'   C A   4      -2.010  16.683  51.500  1.00  0.00    -0.388 OA
ATOM     94 'HO2   C A   4      -1.942  16.555  50.553  1.00  0.00     0.210 HD
ATOM     95  C3'   C A   4      -4.139  17.604  50.783  1.00  0.00     0.198 C 
ATOM     96  O3'   C A   4      -3.755  17.303  49.443  1.00  0.00    -0.279 OA
ATOM     97  P     T A   5      -4.789  16.555  48.464  1.00  0.00     0.408 P 
ATOM     98  OP1   T A   5      -4.174  16.506  47.112  1.00  0.00    -0.624 OA
ATOM     99  OP2   T A   5      -6.127  17.176  48.639  1.00  0.00    -0.624 OA
ATOM    100  O5'   T A   5      -4.858  15.067  49.036  1.00  0.00    -0.287 OA
ATOM    101  C5'   T A   5      -3.878  14.091  48.679  1.00  0.00     0.216 C 
ATOM    102  C4'   T A   5      -3.464  13.295  49.898  1.00  0.00     0.180 C 
ATOM    103  O4'   T A   5      -3.664  14.108  51.087  1.00  0.00    -0.353 OA
ATOM    104  C1'   T A   5      -4.169  13.306  52.140  1.00  0.00     0.264 C 
ATOM    105  N1    T A   5      -5.519  13.780  52.481  1.00  0.00    -0.280 N 
ATOM    106  C6    T A   5      -6.121  14.795  51.769  1.00  0.00     0.104 A 
ATOM    107  C2    T A   5      -6.169  13.174  53.542  1.00  0.00     0.331 A 
ATOM    108  O2    T A   5      -5.673  12.275  54.199  1.00  0.00    -0.246 OA
ATOM    109  N3    T A   5      -7.423  13.661  53.807  1.00  0.00    -0.275 N 
ATOM    110  H3    T A   5      -7.915  13.248  54.583  1.00  0.00     0.173 HD
ATOM    111  C4    T A   5      -8.080  14.667  53.140  1.00  0.00     0.250 A 
ATOM    112  O4    T A   5      -9.215  14.986  53.495  1.00  0.00    -0.268 OA
ATOM    113  C5    T A   5      -7.345  15.245  52.061  1.00  0.00     0.092 A 
ATOM    114  C2'   T A   5      -4.126  11.853  51.667  1.00  0.00     0.199 C 
ATOM    115  O2'   T A   5      -2.864  11.306  52.004  1.00  0.00    -0.388 OA
ATOM    116 'HO2   T A   5      -2.464  11.011  51.186  1.00  0.00     0.210 HD
ATOM    117  C3'   T A   5      -4.270  12.029  50.160  1.00  0.00     0.198 C 
ATOM    118  O3'   T A   5      -3.755  10.917  49.432  1.00  0.00    -0.279 OA
ATOM    119  P     C A   6      -4.677  10.174  48.341  1.00  0.00     0.408 P 
ATOM    120  OP1   C A   6      -3.797   9.253  47.577  1.00  0.00    -0.624 OA
ATOM    121  OP2   C A   6      -5.464  11.205  47.617  1.00  0.00    -0.624 OA
ATOM    122  O5'   C A   6      -5.685   9.302  49.218  1.00  0.00    -0.287 OA
ATOM    123  C5'   C A   6      -6.090   7.994  48.807  1.00  0.00     0.216 C 
ATOM    124  C4'   C A   6      -6.075   7.044  49.987  1.00  0.00     0.180 C 
ATOM    125  O4'   C A   6      -5.529   7.741  51.148  1.00  0.00    -0.353 OA
ATOM    126  C1'   C A   6      -6.376   7.537  52.264  1.00  0.00     0.264 C 
ATOM    127  N1    C A   6      -7.188   8.748  52.470  1.00  0.00    -0.278 N 
ATOM    128  C6    C A   6      -6.948   9.888  51.755  1.00  0.00     0.102 A 
ATOM    129  C2    C A   6      -8.225   8.706  53.400  1.00  0.00     0.352 A 
ATOM    130  O2    C A   6      -8.406   7.667  54.054  1.00  0.00    -0.244 OA
ATOM    131  N3    C A   6      -9.005   9.793  53.572  1.00  0.00    -0.177 NA
ATOM    132  C4    C A   6      -8.774  10.897  52.865  1.00  0.00     0.128 A 
ATOM    133  N4    C A   6      -9.582  11.938  53.065  1.00  0.00    -0.384 N 
ATOM    134  H41   C A   6      -9.460  12.803  52.559  1.00  0.00     0.157 HD
ATOM    135  H42   C A   6     -10.332  11.846  53.737  1.00  0.00     0.157 HD
ATOM    136  C5    C A   6      -7.709  10.980  51.920  1.00  0.00     0.067 A 
ATOM    137  C2'   C A   6      -7.217   6.310  51.932  1.00  0.00     0.199 C 
ATOM    138  O2'   C A   6      -6.448   5.145  52.171  1.00  0.00    -0.388 OA
ATOM    139 'HO2   C A   6      -6.302   4.730  51.322  1.00  0.00     0.210 HD
ATOM    140  C3'   C A   6      -7.441   6.540  50.446  1.00  0.00     0.198 C 
ATOM    141  O3'   C A   6      -7.851   5.351  49.777  1.00  0.00    -0.279 OA
ATOM    142  P     G A   7      -9.356   5.233  49.222  1.00  0.00     0.408 P 
ATOM    143  OP1   G A   7     -10.245   5.912  50.200  1.00  0.00    -0.624 OA
ATOM    144  OP2   G A   7      -9.338   5.686  47.809  1.00  0.00    -0.624 OA
ATOM    145  O5'   G A   7      -9.673   3.670  49.263  1.00  0.00    -0.287 OA
ATOM    146  C5'   G A   7     -11.000   3.187  49.499  1.00  0.00     0.216 C 
ATOM    147  C4'   G A   7     -11.557   2.553  48.243  1.00  0.00     0.180 C 
ATOM    148  O4'   G A   7     -12.948   2.955  48.101  1.00  0.00    -0.353 OA
ATOM    149  C1'   G A   7     -13.078   3.758  46.955  1.00  0.00     0.262 C 
ATOM    150  N9    G A   7     -12.915   5.149  47.368  1.00  0.00    -0.293 N 
ATOM    151  C4    G A   7     -13.609   5.766  48.374  1.00  0.00     0.187 A 
ATOM    152  N3    G A   7     -14.567   5.198  49.133  1.00  0.00    -0.044 NA
ATOM    153  C2    G A   7     -15.052   6.037  50.024  1.00  0.00     0.703 A 
ATOM    154  N2    G A   7     -16.010   5.624  50.850  1.00  0.00    -0.233 N 
ATOM    155  H21   G A   7     -16.346   4.676  50.778  1.00  0.00     0.174 HD
ATOM    156  H22   G A   7     -16.393   6.250  51.546  1.00  0.00     0.174 HD
ATOM    157  N1    G A   7     -14.633   7.335  50.167  1.00  0.00    -0.153 N 
ATOM    158  H1    G A   7     -15.071   7.894  50.884  1.00  0.00     0.187 HD
ATOM    159  C6    G A   7     -13.647   7.945  49.397  1.00  0.00     0.292 A 
ATOM    160  O6    G A   7     -13.341   9.123  49.612  1.00  0.00    -0.265 OA
ATOM    161  C5    G A   7     -13.116   7.051  48.427  1.00  0.00     0.173 A 
ATOM    162  N7    G A   7     -12.133   7.242  47.466  1.00  0.00    -0.234 NA
ATOM    163  C8    G A   7     -12.050   6.088  46.862  1.00  0.00     0.214 A 
ATOM    164  C2'   G A   7     -12.028   3.227  45.987  1.00  0.00     0.199 C 
ATOM    165  O2'   G A   7     -12.512   2.023  45.425  1.00  0.00    -0.388 OA
ATOM    166 'HO2   G A   7     -12.644   1.405  46.148  1.00  0.00     0.210 HD
ATOM    167  C3'   G A   7     -10.866   2.973  46.945  1.00  0.00     0.198 C 
ENDROOT
BRANCH 167 168
ATOM    168  O3'   G A   7      -9.980   1.955  46.494  1.00  0.00    -0.279 OA
BRANCH 168 169
ATOM    169  P     T A   8      -8.988   2.255  45.262  1.00  0.00     0.408 P 
ATOM    170  OP2   T A   8      -9.652   1.815  44.008  1.00  0.00    -0.624 OA
ATOM    171  OP1   T A   8      -7.652   1.710  45.614  1.00  0.00    -0.624 OA
BRANCH 169 172
ATOM    172  O5'   T A   8      -8.878   3.843  45.232  1.00  0.00    -0.287 OA
BRANCH 172 173
ATOM    173  C5'   T A   8      -8.186   4.509  44.177  1.00  0.00     0.216 C 
BRANCH 173 174
ATOM    174  C4'   T A   8      -9.163   5.259  43.307  1.00  0.00     0.180 C 
ATOM    175  O4'   T A   8     -10.142   5.917  44.158  1.00  0.00    -0.353 OA
ATOM    176  C1'   T A   8     -10.426   7.209  43.650  1.00  0.00     0.264 C 
ATOM    177  C2'   T A   8      -9.747   7.320  42.285  1.00  0.00     0.199 C 
ATOM    178  N1    T A   8      -9.956   8.205  44.624  1.00  0.00    -0.280 N 
ATOM    179  C3'   T A   8      -8.562   6.382  42.473  1.00  0.00     0.198 C 
ATOM    180  C6    T A   8      -8.733   8.075  45.243  1.00  0.00     0.104 A 
ATOM    181  C2    T A   8     -10.781   9.282  44.897  1.00  0.00     0.331 A 
ATOM    182  C5    T A   8      -8.277   8.973  46.120  1.00  0.00     0.092 A 
ATOM    183  C4    T A   8      -9.066  10.116  46.451  1.00  0.00     0.250 A 
ATOM    184  N3    T A   8     -10.279  10.180  45.804  1.00  0.00    -0.275 N 
ATOM    185  O4    T A   8      -8.743  11.020  47.221  1.00  0.00    -0.268 OA
ATOM    186  H3    T A   8     -10.862  10.971  46.032  1.00  0.00     0.173 HD
ATOM    187  O2    T A   8     -11.871   9.433  44.374  1.00  0.00    -0.246 OA
BRANCH 177 188
ATOM    188  O2'   T A   8     -10.635   6.835  41.295  1.00  0.00    -0.388 OA
ATOM    189 'HO2   T A   8     -11.518   7.092  41.567  1.00  0.00     0.210 HD
ENDBRANCH 177 188
BRANCH 179 190
ATOM    190  O3'   T A   8      -8.043   5.891  41.240  1.00  0.00    -0.279 OA
BRANCH 190 191
ATOM    191  P     G A   9      -6.629   6.429  40.689  1.00  0.00     0.408 P 
ATOM    192  OP1   G A   9      -5.568   5.637  41.360  1.00  0.00    -0.624 OA
ATOM    193  OP2   G A   9      -6.596   7.912  40.766  1.00  0.00    -0.624 OA
BRANCH 191 194
ATOM    194  O5'   G A   9      -6.643   6.013  39.150  1.00  0.00    -0.287 OA
BRANCH 194 195
ATOM    195  C5'   G A   9      -5.566   6.373  38.285  1.00  0.00     0.216 C 
BRANCH 195 196
ATOM    196  C4'   G A   9      -6.052   6.470  36.859  1.00  0.00     0.180 C 
ATOM    197  O4'   G A   9      -5.539   7.688  36.260  1.00  0.00    -0.353 OA
ATOM    198  C1'   G A   9      -5.302   7.474  34.880  1.00  0.00     0.262 C 
ATOM    199  C2'   G A   9      -5.706   6.035  34.554  1.00  0.00     0.199 C 
ATOM    200  N9    G A   9      -3.898   7.754  34.604  1.00  0.00    -0.293 N 
ATOM    201  C3'   G A   9      -5.572   5.373  35.921  1.00  0.00     0.198 C 
ATOM    202  O3'   G A   9      -6.365   4.195  36.035  1.00  0.00    -0.279 OA
ATOM    203  P     G A  10      -5.661   2.750  35.980  1.00  0.00     0.408 P 
ATOM    204  OP2   G A  10      -4.685   2.662  37.095  1.00  0.00    -0.624 OA
ATOM    205  OP1   G A  10      -6.745   1.740  35.873  1.00  0.00    -0.624 OA
ATOM    206  O5'   G A  10      -4.853   2.760  34.606  1.00  0.00    -0.287 OA
ATOM    207  C8    G A   9      -2.806   7.255  35.270  1.00  0.00     0.214 A 
ATOM    208  C4    G A   9      -3.407   8.572  33.616  1.00  0.00     0.187 A 
ATOM    209  N7    G A   9      -1.669   7.681  34.791  1.00  0.00    -0.234 NA
ATOM    210  C5    G A   9      -2.035   8.516  33.741  1.00  0.00     0.173 A 
ATOM    211  C6    G A   9      -1.237   9.271  32.840  1.00  0.00     0.292 A 
ATOM    212  N1    G A   9      -2.020   9.978  31.935  1.00  0.00    -0.153 N 
ATOM    213  O6    G A   9      -0.008   9.354  32.782  1.00  0.00    -0.265 OA
ATOM    214  H1    G A   9      -1.530  10.542  31.258  1.00  0.00     0.187 HD
ATOM    215  C2    G A   9      -3.390   9.965  31.897  1.00  0.00     0.703 A 
ATOM    216  N3    G A   9      -4.145   9.268  32.724  1.00  0.00    -0.044 NA
ATOM    217  N2    G A   9      -3.963  10.715  30.953  1.00  0.00    -0.233 N 
ATOM    218  H22   G A   9      -3.405  11.263  30.314  1.00  0.00     0.174 HD
ATOM    219  H21   G A   9      -4.971  10.732  30.895  1.00  0.00     0.174 HD
BRANCH 199 220
ATOM    220  O2'   G A   9      -7.052   6.025  34.115  1.00  0.00    -0.388 OA
ATOM    221 'HO2   G A   9      -7.209   5.147  33.767  1.00  0.00     0.210 HD
ENDBRANCH 199 220
BRANCH 206 222
ATOM    222  C5'   G A  10      -5.534   2.741  33.351  1.00  0.00     0.216 C 
BRANCH 222 223
ATOM    223  C4'   G A  10      -5.197   1.480  32.586  1.00  0.00     0.180 C 
ATOM    224  O4'   G A  10      -6.187   0.458  32.870  1.00  0.00    -0.353 OA
ATOM    225  C1'   G A  10      -6.348  -0.376  31.736  1.00  0.00     0.262 C 
ATOM    226  C2'   G A  10      -5.435   0.156  30.628  1.00  0.00     0.199 C 
ATOM    227  C3'   G A  10      -5.229   1.603  31.069  1.00  0.00     0.198 C 
BRANCH 225 228
ATOM    228  N9    G A  10      -7.763  -0.396  31.374  1.00  0.00    -0.293 N 
ATOM    229  C4    G A  10      -8.460  -1.464  30.862  1.00  0.00     0.187 A 
ATOM    230  N3    G A  10      -7.957  -2.688  30.599  1.00  0.00    -0.044 NA
ATOM    231  C5    G A  10      -9.751  -1.009  30.685  1.00  0.00     0.173 A 
ATOM    232  C2    G A  10      -8.873  -3.505  30.111  1.00  0.00     0.703 A 
ATOM    233  N1    G A  10     -10.182  -3.153  29.899  1.00  0.00    -0.153 N 
ATOM    234  N2    G A  10      -8.542  -4.759  29.793  1.00  0.00    -0.233 N 
ATOM    235  C6    G A  10     -10.725  -1.901  30.160  1.00  0.00     0.292 A 
ATOM    236  H1    G A  10     -10.795  -3.860  29.523  1.00  0.00     0.187 HD
ATOM    237  O6    G A  10     -11.922  -1.689  29.928  1.00  0.00    -0.265 OA
ATOM    238  H21   G A  10      -7.591  -5.068  29.930  1.00  0.00     0.174 HD
ATOM    239  H22   G A  10      -9.236  -5.392  29.422  1.00  0.00     0.174 HD
ATOM    240  N7    G A  10      -9.862   0.320  31.077  1.00  0.00    -0.234 NA
ATOM    241  C8    G A  10      -8.662   0.638  31.477  1.00  0.00     0.214 A 
ENDBRANCH 225 228
BRANCH 226 242
ATOM    242  O2'   G A  10      -4.217  -0.563  30.661  1.00  0.00    -0.388 OA
ATOM    243 'HO2   G A  10      -3.815  -0.460  29.798  1.00  0.00     0.210 HD
ENDBRANCH 226 242
BRANCH 227 244
ATOM    244  O3'   G A  10      -4.017   2.163  30.566  1.00  0.00    -0.279 OA
BRANCH 244 245
ATOM    245  P     C A  11      -3.849   2.426  28.987  1.00  0.00     0.408 P 
ATOM    246  OP2   C A  11      -3.292   1.202  28.357  1.00  0.00    -0.624 OA
ATOM    247  OP1   C A  11      -5.136   2.982  28.496  1.00  0.00    -0.624 OA
BRANCH 245 248
ATOM    248  O5'   C A  11      -2.749   3.575  28.905  1.00  0.00    -0.287 OA
BRANCH 248 249
ATOM    249  C5'   C A  11      -3.016   4.797  28.222  1.00  0.00     0.216 C 
BRANCH 249 250
ATOM    250  C4'   C A  11      -2.166   4.898  26.977  1.00  0.00     0.180 C 
ATOM    251  O4'   C A  11      -2.246   3.646  26.250  1.00  0.00    -0.353 OA
ATOM    252  C1'   C A  11      -2.154   3.900  24.858  1.00  0.00     0.264 C 
ATOM    253  C2'   C A  11      -2.011   5.411  24.663  1.00  0.00     0.199 C 
ATOM    254  C3'   C A  11      -2.603   5.944  25.963  1.00  0.00     0.198 C 
BRANCH 252 255
ATOM    255  N1    C A  11      -3.343   3.333  24.200  1.00  0.00    -0.278 N 
ATOM    256  C2    C A  11      -3.389   1.958  23.970  1.00  0.00     0.352 A 
ATOM    257  O2    C A  11      -2.435   1.256  24.331  1.00  0.00    -0.244 OA
ATOM    258  N3    C A  11      -4.470   1.423  23.362  1.00  0.00    -0.177 NA
ATOM    259  C4    C A  11      -5.480   2.209  22.990  1.00  0.00     0.128 A 
ATOM    260  N4    C A  11      -6.525   1.635  22.394  1.00  0.00    -0.384 N 
ATOM    261  C5    C A  11      -5.465   3.617  23.214  1.00  0.00     0.067 A 
ATOM    262  H41   C A  11      -7.312   2.192  22.096  1.00  0.00     0.157 HD
ATOM    263  H42   C A  11      -6.523   0.637  22.242  1.00  0.00     0.157 HD
ATOM    264  C6    C A  11      -4.385   4.132  23.817  1.00  0.00     0.102 A 
ENDBRANCH 252 255
BRANCH 253 265
ATOM    265  O2'   C A  11      -0.634   5.719  24.562  1.00  0.00    -0.388 OA
ATOM    266 'HO2   C A  11      -0.354   6.026  25.424  1.00  0.00     0.210 HD
ENDBRANCH 253 265
BRANCH 254 267
ATOM    267  O3'   C A  11      -2.109   7.239  26.296  1.00  0.00    -0.279 OA
BRANCH 267 268
ATOM    268  P     G A  12      -0.595   7.412  26.809  1.00  0.00     0.408 P 
ATOM    269  OP2   G A  12      -0.144   6.125  27.401  1.00  0.00    -0.624 OA
ATOM    270  OP1   G A  12       0.176   8.015  25.693  1.00  0.00    -0.624 OA
BRANCH 268 271
ATOM    271  O5'   G A  12      -0.703   8.500  27.970  1.00  0.00    -0.287 OA
BRANCH 271 272
ATOM    272  C5'   G A  12      -0.670   9.898  27.681  1.00  0.00     0.216 C 
BRANCH 272 273
ATOM    273  C4'   G A  12      -2.027  10.513  27.933  1.00  0.00     0.180 C 
ATOM    274  O4'   G A  12      -1.854  11.746  28.681  1.00  0.00    -0.353 OA
ATOM    275  C1'   G A  12      -2.812  12.701  28.257  1.00  0.00     0.262 C 
ATOM    276  N9    G A  12      -2.105  13.863  27.727  1.00  0.00    -0.293 N 
ATOM    277  C2'   G A  12      -3.722  12.021  27.232  1.00  0.00     0.199 C 
ATOM    278  C4    G A  12      -2.676  14.975  27.157  1.00  0.00     0.187 A 
ATOM    279  C8    G A  12      -0.746  14.065  27.692  1.00  0.00     0.214 A 
ATOM    280  N3    G A  12      -3.997  15.190  26.990  1.00  0.00    -0.044 NA
ATOM    281  C5    G A  12      -1.620  15.790  26.807  1.00  0.00     0.173 A 
ATOM    282  C2    G A  12      -4.238  16.352  26.412  1.00  0.00     0.703 A 
ATOM    283  N1    G A  12      -3.264  17.234  26.024  1.00  0.00    -0.153 N 
ATOM    284  N2    G A  12      -5.499  16.723  26.175  1.00  0.00    -0.233 N 
ATOM    285  C6    G A  12      -1.897  17.035  26.181  1.00  0.00     0.292 A 
ATOM    286  H1    G A  12      -3.557  18.096  25.590  1.00  0.00     0.187 HD
ATOM    287  O6    G A  12      -1.102  17.897  25.789  1.00  0.00    -0.265 OA
ATOM    288  H22   G A  12      -5.697  17.612  25.742  1.00  0.00     0.174 HD
ATOM    289  H21   G A  12      -6.254  16.109  26.442  1.00  0.00     0.174 HD
ATOM    290  N7    G A  12      -0.410  15.203  27.151  1.00  0.00    -0.234 NA
ATOM    291  C3'   G A  12      -2.800  10.934  26.691  1.00  0.00     0.198 C 
BRANCH 277 292
ATOM    292  O2'   G A  12      -4.831  11.464  27.911  1.00  0.00    -0.388 OA
ATOM    293 'HO2   G A  12      -4.535  10.637  28.293  1.00  0.00     0.210 HD
ENDBRANCH 277 292
BRANCH 291 294
ATOM    294  O3'   G A  12      -3.521   9.844  26.123  1.00  0.00    -0.279 OA
BRANCH 294 295
ATOM    295  P     T A  13      -3.957   9.894  24.575  1.00  0.00     0.408 P 
ATOM    296  OP2   T A  13      -3.995  11.315  24.145  1.00  0.00    -0.624 OA
ATOM    297  OP1   T A  13      -3.101   8.927  23.839  1.00  0.00    -0.624 OA
BRANCH 295 298
ATOM    298  O5'   T A  13      -5.450   9.338  24.574  1.00  0.00    -0.287 OA
BRANCH 298 299
ATOM    299  C5'   T A  13      -6.138   9.083  25.797  1.00  0.00     0.216 C 
BRANCH 299 300
ATOM    300  C4'   T A  13      -6.128   7.603  26.104  1.00  0.00     0.180 C 
ATOM    301  O4'   T A  13      -5.360   7.379  27.320  1.00  0.00    -0.353 OA
ATOM    302  C1'   T A  13      -6.014   6.415  28.127  1.00  0.00     0.264 C 
ATOM    303  N1    T A  13      -6.507   7.079  29.344  1.00  0.00    -0.280 N 
ATOM    304  C2'   T A  13      -7.122   5.798  27.277  1.00  0.00     0.199 C 
ATOM    305  C6    T A  13      -6.580   8.451  29.430  1.00  0.00     0.104 A 
ATOM    306  C2    T A  13      -6.899   6.277  30.398  1.00  0.00     0.331 A 
ATOM    307  C5    T A  13      -7.031   9.075  30.523  1.00  0.00     0.092 A 
ATOM    308  C4    T A  13      -7.459   8.314  31.654  1.00  0.00     0.250 A 
ATOM    309  O4    T A  13      -7.891   8.769  32.714  1.00  0.00    -0.268 OA
ATOM    310  N3    T A  13      -7.358   6.951  31.500  1.00  0.00    -0.275 N 
ATOM    311  H3    T A  13      -7.654   6.381  32.278  1.00  0.00     0.173 HD
ATOM    312  O2    T A  13      -6.846   5.061  30.363  1.00  0.00    -0.246 OA
ATOM    313  C3'   T A  13      -7.489   6.982  26.392  1.00  0.00     0.198 C 
ATOM    314  O2'   T A  13      -6.577   4.738  26.515  1.00  0.00    -0.388 OA
ATOM    315  O3'   T A  13      -8.155   6.581  25.197  1.00  0.00    -0.279 OA
ATOM    316  P     C A  14      -9.762   6.579  25.140  1.00  0.00     0.408 P 
ATOM    317  OP2   C A  14     -10.259   7.808  25.810  1.00  0.00    -0.624 OA
ATOM    318  OP1   C A  14     -10.154   6.299  23.735  1.00  0.00    -0.624 OA
ATOM    319  O5'   C A  14     -10.179   5.326  26.032  1.00  0.00    -0.287 OA
ATOM    320  C5'   C A  14      -9.931   3.992  25.588  1.00  0.00     0.216 C 
ATOM    321  C4'   C A  14     -10.298   3.002  26.671  1.00  0.00     0.180 C 
ATOM    322  O4'   C A  14      -9.563   3.326  27.882  1.00  0.00    -0.353 OA
ATOM    323  C3'   C A  14     -11.755   3.012  27.108  1.00  0.00     0.198 C 
ATOM    324  C1'   C A  14     -10.368   3.051  29.016  1.00  0.00     0.264 C 
ATOM    325  N1    C A  14     -10.557   4.304  29.768  1.00  0.00    -0.278 N 
ATOM    326  C2'   C A  14     -11.674   2.434  28.515  1.00  0.00     0.199 C 
ATOM    327  C6    C A  14     -10.290   5.515  29.192  1.00  0.00     0.102 A 
ATOM    328  C2    C A  14     -11.014   4.237  31.088  1.00  0.00     0.352 A 
ATOM    329  C5    C A  14     -10.453   6.655  29.874  1.00  0.00     0.067 A 
ATOM    330  C4    C A  14     -10.917   6.556  31.218  1.00  0.00     0.128 A 
ATOM    331  N3    C A  14     -11.185   5.380  31.788  1.00  0.00    -0.177 NA
ATOM    332  N4    C A  14     -11.098   7.655  31.947  1.00  0.00    -0.384 N 
ATOM    333  H42   C A  14     -11.431   7.573  32.898  1.00  0.00     0.157 HD
ATOM    334  H41   C A  14     -10.908   8.566  31.556  1.00  0.00     0.157 HD
ATOM    335  O2    C A  14     -11.254   3.127  31.587  1.00  0.00    -0.244 OA
ATOM    336  O2'   C A  14     -11.526   1.027  28.485  1.00  0.00    -0.388 OA
ATOM    337 'HO2   C A  14     -11.769   0.739  27.605  1.00  0.00     0.210 HD
ATOM    338  O3'   C A  14     -12.569   2.225  26.242  1.00  0.00    -0.279 OA
ATOM    339  P     T A  15     -14.164   2.442  26.227  1.00  0.00     0.408 P 
ATOM    340  OP2   T A  15     -14.439   3.902  26.207  1.00  0.00    -0.624 OA
ATOM    341  O5'   T A  15     -14.646   1.864  27.631  1.00  0.00    -0.287 OA
ATOM    342  OP1   T A  15     -14.718   1.577  25.153  1.00  0.00    -0.624 OA
ATOM    343  C5'   T A  15     -14.528   0.474  27.933  1.00  0.00     0.216 C 
ATOM    344  C4'   T A  15     -15.277   0.150  29.204  1.00  0.00     0.180 C 
ATOM    345  C3'   T A  15     -16.657   0.782  29.334  1.00  0.00     0.198 C 
ATOM    346  O4'   T A  15     -14.534   0.674  30.340  1.00  0.00    -0.353 OA
ATOM    347  O3'   T A  15     -17.656   0.008  28.676  1.00  0.00    -0.279 OA
ATOM    348  C2'   T A  15     -16.848   0.829  30.844  1.00  0.00     0.199 C 
ATOM    349  P     G A  16     -18.965   0.732  28.084  1.00  0.00     0.408 P 
ATOM    350  O5'   G A  16     -19.804   1.132  29.380  1.00  0.00    -0.287 OA
ATOM    351  OP2   G A  16     -18.546   1.981  27.399  1.00  0.00    -0.624 OA
ATOM    352  OP1   G A  16     -19.734  -0.293  27.333  1.00  0.00    -0.624 OA
ATOM    353  C5'   G A  16     -20.605   0.168  30.061  1.00  0.00     0.216 C 
ATOM    354  C4'   G A  16     -21.065   0.715  31.392  1.00  0.00     0.180 C 
ATOM    355  C3'   G A  16     -22.097   1.832  31.327  1.00  0.00     0.198 C 
ATOM    356  O4'   G A  16     -19.939   1.323  32.078  1.00  0.00    -0.353 OA
ATOM    357  C2'   G A  16     -21.906   2.526  32.670  1.00  0.00     0.199 C 
ATOM    358  O3'   G A  16     -23.418   1.322  31.162  1.00  0.00    -0.279 OA
ATOM    359  O2'   G A  16     -22.534   1.803  33.712  1.00  0.00    -0.388 OA
ATOM    360  C1'   G A  16     -20.391   2.424  32.848  1.00  0.00     0.262 C 
ATOM    361 'HO2   G A  16     -23.222   1.276  33.305  1.00  0.00     0.210 HD
ATOM    362  N9    G A  16     -19.671   3.618  32.414  1.00  0.00    -0.293 N 
ATOM    363  C4    G A  16     -19.623   4.826  33.069  1.00  0.00     0.187 A 
ATOM    364  C8    G A  16     -18.909   3.763  31.280  1.00  0.00     0.214 A 
ATOM    365  N3    G A  16     -20.243   5.122  34.230  1.00  0.00    -0.044 NA
ATOM    366  C5    G A  16     -18.823   5.633  32.290  1.00  0.00     0.173 A 
ATOM    367  C2    G A  16     -20.008   6.365  34.610  1.00  0.00     0.703 A 
ATOM    368  N1    G A  16     -19.227   7.248  33.909  1.00  0.00    -0.153 N 
ATOM    369  N2    G A  16     -20.549   6.825  35.740  1.00  0.00    -0.233 N 
ATOM    370  H1    G A  16     -19.111   8.176  34.289  1.00  0.00     0.187 HD
ATOM    371  C6    G A  16     -18.581   6.966  32.712  1.00  0.00     0.292 A 
ATOM    372  O6    G A  16     -17.899   7.838  32.161  1.00  0.00    -0.265 OA
ATOM    373  H22   G A  16     -20.380   7.776  36.040  1.00  0.00     0.174 HD
ATOM    374  H21   G A  16     -21.132   6.215  36.293  1.00  0.00     0.174 HD
ATOM    375  N7    G A  16     -18.378   4.949  31.165  1.00  0.00    -0.234 NA
ATOM    376  P     A A  17     -24.557   2.250  30.504  1.00  0.00     0.408 P 
ATOM    377  O5'   A A  17     -24.713   3.459  31.530  1.00  0.00    -0.287 OA
ATOM    378  OP1   A A  17     -25.820   1.470  30.511  1.00  0.00    -0.624 OA
ATOM    379  OP2   A A  17     -24.038   2.792  29.223  1.00  0.00    -0.624 OA
ATOM    380  C5'   A A  17     -25.239   3.249  32.840  1.00  0.00     0.216 C 
ATOM    381  C4'   A A  17     -25.509   4.574  33.514  1.00  0.00     0.180 C 
ATOM    382  O4'   A A  17     -24.249   5.163  33.928  1.00  0.00    -0.353 OA
ATOM    383  C3'   A A  17     -26.142   5.644  32.637  1.00  0.00     0.198 C 
ATOM    384  C1'   A A  17     -24.339   6.575  33.855  1.00  0.00     0.262 C 
ATOM    385  C2'   A A  17     -25.737   6.933  33.345  1.00  0.00     0.199 C 
ATOM    386  N9    A A  17     -23.257   7.059  32.998  1.00  0.00    -0.294 N 
ATOM    387  O2'   A A  17     -26.572   7.186  34.458  1.00  0.00    -0.388 OA
ATOM    388 'HO2   A A  17     -27.361   6.658  34.335  1.00  0.00     0.210 HD
ATOM    389  C4    A A  17     -22.701   8.316  33.028  1.00  0.00     0.167 A 
ATOM    390  C8    A A  17     -22.587   6.377  32.014  1.00  0.00     0.214 A 
ATOM    391  N3    A A  17     -23.038   9.336  33.834  1.00  0.00    -0.222 NA
ATOM    392  C5    A A  17     -21.717   8.316  32.056  1.00  0.00     0.149 A 
ATOM    393  C2    A A  17     -22.281  10.402  33.582  1.00  0.00     0.237 A 
ATOM    394  N1    A A  17     -21.299  10.552  32.684  1.00  0.00    -0.222 NA
ATOM    395  C6    A A  17     -20.987   9.506  31.888  1.00  0.00     0.155 A 
ATOM    396  N6    A A  17     -20.010   9.657  30.993  1.00  0.00    -0.382 N 
ATOM    397  H62   A A  17     -19.523  10.539  30.921  1.00  0.00     0.157 HD
ATOM    398  H61   A A  17     -19.759   8.889  30.388  1.00  0.00     0.157 HD
ATOM    399  N7    A A  17     -21.655   7.082  31.421  1.00  0.00    -0.236 NA
ATOM    400  O3'   A A  17     -27.557   5.487  32.561  1.00  0.00    -0.279 OA
ATOM    401  P     C A  18     -28.328   5.834  31.193  1.00  0.00     0.408 P 
ATOM    402  O5'   C A  18     -28.182   7.414  31.053  1.00  0.00    -0.287 OA
ATOM    403  OP2   C A  18     -27.594   5.204  30.065  1.00  0.00    -0.624 OA
ATOM    404  OP1   C A  18     -29.764   5.518  31.401  1.00  0.00    -0.624 OA
ATOM    405  C5'   C A  18     -28.651   8.291  32.078  1.00  0.00     0.216 C 
ATOM    406  C4'   C A  18     -28.088   9.678  31.873  1.00  0.00     0.180 C 
ATOM    407  C3'   C A  18     -28.280  10.256  30.477  1.00  0.00     0.198 C 
ATOM    408  O4'   C A  18     -26.648   9.629  32.065  1.00  0.00    -0.353 OA
ATOM    409  C2'   C A  18     -27.090  11.198  30.334  1.00  0.00     0.199 C 
ATOM    410  O3'   C A  18     -29.528  10.937  30.366  1.00  0.00    -0.279 OA
ATOM    411  C1'   C A  18     -26.006  10.430  31.091  1.00  0.00     0.264 C 
ATOM    412  O2'   C A  18     -27.330  12.424  30.999  1.00  0.00    -0.388 OA
ATOM    413  N1    C A  18     -25.190   9.553  30.236  1.00  0.00    -0.278 N 
ATOM    414  C2    C A  18     -23.870   9.917  29.957  1.00  0.00     0.352 A 
ATOM    415  C6    C A  18     -25.709   8.398  29.718  1.00  0.00     0.102 A 
ATOM    416  O2    C A  18     -23.421  10.965  30.442  1.00  0.00    -0.244 OA
ATOM    417  N3    C A  18     -23.116   9.121  29.166  1.00  0.00    -0.177 NA
ATOM    418  C4    C A  18     -23.635   7.999  28.664  1.00  0.00     0.128 A 
ATOM    419  C5    C A  18     -24.975   7.599  28.936  1.00  0.00     0.067 A 
ATOM    420  N4    C A  18     -22.855   7.248  27.889  1.00  0.00    -0.384 N 
ATOM    421  H41   C A  18     -23.211   6.392  27.487  1.00  0.00     0.157 HD
ATOM    422  H42   C A  18     -21.906   7.539  27.703  1.00  0.00     0.157 HD
ATOM    423 'HO2   C A  18     -28.275  12.475  31.148  1.00  0.00     0.210 HD
ATOM    424  P     T A  19     -30.431  10.746  29.049  1.00  0.00     0.408 P 
ATOM    425  O5'   T A  19     -29.861  11.830  28.030  1.00  0.00    -0.287 OA
ATOM    426  OP1   T A  19     -31.819  11.136  29.406  1.00  0.00    -0.624 OA
ATOM    427  OP2   T A  19     -30.172   9.396  28.484  1.00  0.00    -0.624 OA
ATOM    428  C1'   T A  15     -15.436   1.193  31.303  1.00  0.00     0.264 C 
ATOM    429  O2'   T A  15     -17.182  -0.446  31.362  1.00  0.00    -0.388 OA
ATOM    430  N1    T A  15     -15.213   2.641  31.417  1.00  0.00    -0.280 N 
ATOM    431  C2    T A  15     -15.498   3.245  32.627  1.00  0.00     0.331 A 
ATOM    432  C6    T A  15     -14.739   3.377  30.353  1.00  0.00     0.104 A 
ATOM    433  N3    T A  15     -15.276   4.596  32.668  1.00  0.00    -0.275 N 
ATOM    434  O2    T A  15     -15.915   2.631  33.593  1.00  0.00    -0.246 OA
ATOM    435  H3    T A  15     -15.488   5.059  33.540  1.00  0.00     0.173 HD
ATOM    436  C4    T A  15     -14.805   5.391  31.649  1.00  0.00     0.250 A 
ATOM    437  O4    T A  15     -14.648   6.596  31.847  1.00  0.00    -0.268 OA
ATOM    438  C5    T A  15     -14.531   4.695  30.431  1.00  0.00     0.092 A 
ATOM    439 'HO2   T A  15     -18.137  -0.511  31.338  1.00  0.00     0.210 HD
ATOM    440 'HO2   T A  13      -6.960   4.802  25.640  1.00  0.00     0.210 HD
BRANCH 425 441
ATOM    441  C5'   T A  19     -30.179  11.770  26.639  1.00  0.00     0.216 C 
BRANCH 441 442
ATOM    442  C4'   T A  19     -29.191  10.886  25.914  1.00  0.00     0.180 C 
ATOM    443  O4'   T A  19     -29.922  10.002  25.021  1.00  0.00    -0.353 OA
ATOM    444  C1'   T A  19     -29.271   9.935  23.766  1.00  0.00     0.264 C 
ATOM    445  C2'   T A  19     -27.917  10.632  23.907  1.00  0.00     0.199 C 
ATOM    446  C3'   T A  19     -28.202  11.629  25.025  1.00  0.00     0.198 C 
BRANCH 444 447
ATOM    447  N1    T A  19     -30.153  10.539  22.757  1.00  0.00    -0.280 N 
ATOM    448  C2    T A  19     -29.807  10.387  21.427  1.00  0.00     0.331 A 
ATOM    449  O2    T A  19     -28.807   9.792  21.066  1.00  0.00    -0.246 OA
ATOM    450  N3    T A  19     -30.673  10.961  20.534  1.00  0.00    -0.275 N 
ATOM    451  H3    T A  19     -30.446  10.853  19.558  1.00  0.00     0.173 HD
ATOM    452  C4    T A  19     -31.821  11.661  20.825  1.00  0.00     0.250 A 
ATOM    453  O4    T A  19     -32.506  12.110  19.906  1.00  0.00    -0.268 OA
ATOM    454  C5    T A  19     -32.107  11.780  22.221  1.00  0.00     0.092 A 
ATOM    455  C6    T A  19     -31.287  11.230  23.120  1.00  0.00     0.104 A 
ENDBRANCH 444 447
BRANCH 445 456
ATOM    456  O2'   T A  19     -26.955   9.674  24.307  1.00  0.00    -0.388 OA
ATOM    457 'HO2   T A  19     -26.237  10.162  24.712  1.00  0.00     0.210 HD
ENDBRANCH 445 456
BRANCH 446 458
ATOM    458  O3'   T A  19     -27.025  11.978  25.749  1.00  0.00    -0.279 OA
BRANCH 458 459
ATOM    459  P     C A  20     -26.342  13.416  25.519  1.00  0.00     0.408 P 
ATOM    460  OP2   C A  20     -27.404  14.391  25.162  1.00  0.00    -0.624 OA
ATOM    461  OP1   C A  20     -25.467  13.680  26.690  1.00  0.00    -0.624 OA
BRANCH 459 462
ATOM    462  O5'   C A  20     -25.412  13.193  24.246  1.00  0.00    -0.287 OA
BRANCH 462 463
ATOM    463  C5'   C A  20     -24.624  12.013  24.105  1.00  0.00     0.216 C 
ATOM    464  C4'   C A  20     -24.218  11.832  22.661  1.00  0.00     0.180 C 
ATOM    465  C3'   C A  20     -23.882  13.119  21.918  1.00  0.00     0.198 C 
ATOM    466  O4'   C A  20     -25.337  11.256  21.931  1.00  0.00    -0.353 OA
ATOM    467  C2'   C A  20     -24.247  12.780  20.478  1.00  0.00     0.199 C 
ATOM    468  C1'   C A  20     -25.487  11.911  20.685  1.00  0.00     0.264 C 
ATOM    469  N1    C A  20     -26.749  12.670  20.707  1.00  0.00    -0.278 N 
ATOM    470  C2    C A  20     -27.526  12.722  19.546  1.00  0.00     0.352 A 
ATOM    471  C6    C A  20     -27.160  13.313  21.841  1.00  0.00     0.102 A 
ATOM    472  O2    C A  20     -27.131  12.128  18.533  1.00  0.00    -0.244 OA
ATOM    473  N3    C A  20     -28.686  13.416  19.558  1.00  0.00    -0.177 NA
ATOM    474  C4    C A  20     -29.077  14.041  20.669  1.00  0.00     0.128 A 
ATOM    475  C5    C A  20     -28.306  14.004  21.867  1.00  0.00     0.067 A 
ATOM    476  N4    C A  20     -30.228  14.712  20.632  1.00  0.00    -0.384 N 
ATOM    477  H42   C A  20     -30.765  14.727  19.776  1.00  0.00     0.157 HD
ATOM    478  H41   C A  20     -30.561  15.198  21.450  1.00  0.00     0.157 HD
BRANCH 465 479
ATOM    479  O3'   C A  20     -22.507  13.462  22.066  1.00  0.00    -0.279 OA
BRANCH 479 480
ATOM    480  P     C A  21     -21.458  12.356  22.578  1.00  0.00     0.408 P 
ATOM    481  OP2   C A  21     -21.312  12.493  24.052  1.00  0.00    -0.624 OA
ATOM    482  OP1   C A  21     -21.872  11.053  22.002  1.00  0.00    -0.624 OA
BRANCH 480 483
ATOM    483  O5'   C A  21     -20.085  12.785  21.896  1.00  0.00    -0.287 OA
BRANCH 483 484
ATOM    484  C5'   C A  21     -19.616  14.130  21.967  1.00  0.00     0.216 C 
BRANCH 484 485
ATOM    485  C4'   C A  21     -19.034  14.550  20.639  1.00  0.00     0.180 C 
ATOM    486  C3'   C A  21     -17.513  14.539  20.566  1.00  0.00     0.198 C 
ATOM    487  O3'   C A  21     -17.018  13.252  20.202  1.00  0.00    -0.279 OA
ATOM    488  C2'   C A  21     -17.225  15.594  19.505  1.00  0.00     0.199 C 
ATOM    489  P     A A  22     -15.738  12.644  20.962  1.00  0.00     0.408 P 
ATOM    490  OP2   A A  22     -15.983  12.723  22.425  1.00  0.00    -0.624 OA
ATOM    491  O5'   A A  22     -14.559  13.651  20.596  1.00  0.00    -0.287 OA
ATOM    492  OP1   A A  22     -15.436  11.331  20.339  1.00  0.00    -0.624 OA
ATOM    493  C5'   A A  22     -14.115  13.803  19.248  1.00  0.00     0.216 C 
ATOM    494  C4'   A A  22     -13.053  14.875  19.164  1.00  0.00     0.180 C 
ATOM    495  C3'   A A  22     -11.999  14.842  20.263  1.00  0.00     0.198 C 
ATOM    496  O4'   A A  22     -13.684  16.179  19.306  1.00  0.00    -0.353 OA
ATOM    497  O3'   A A  22     -10.936  13.947  19.949  1.00  0.00    -0.279 OA
ATOM    498  C2'   A A  22     -11.545  16.293  20.316  1.00  0.00     0.199 C 
ATOM    499  P     G A  23     -10.186  13.153  21.129  1.00  0.00     0.408 P 
ATOM    500  OP2   G A  23     -11.209  12.461  21.955  1.00  0.00    -0.624 OA
ATOM    501  OP1   G A  23      -9.094  12.365  20.504  1.00  0.00    -0.624 OA
ATOM    502  C1'   A A  22     -12.876  17.014  20.120  1.00  0.00     0.262 C 
ATOM    503  O2'   A A  22     -10.692  16.602  19.230  1.00  0.00    -0.388 OA
ATOM    504  N9    A A  22     -13.593  17.272  21.369  1.00  0.00    -0.294 N 
ATOM    505  C4    A A  22     -13.309  18.255  22.286  1.00  0.00     0.167 A 
ATOM    506  C8    A A  22     -14.676  16.594  21.871  1.00  0.00     0.214 A 
ATOM    507  N3    A A  22     -12.326  19.170  22.223  1.00  0.00    -0.222 NA
ATOM    508  C5    A A  22     -14.243  18.111  23.295  1.00  0.00     0.149 A 
ATOM    509  C2    A A  22     -12.352  19.961  23.293  1.00  0.00     0.237 A 
ATOM    510  N1    A A  22     -13.189  19.944  24.339  1.00  0.00    -0.222 NA
ATOM    511  C6    A A  22     -14.164  19.012  24.371  1.00  0.00     0.155 A 
ATOM    512  N6    A A  22     -14.996  18.996  25.412  1.00  0.00    -0.382 N 
ATOM    513  H61   A A  22     -15.734  18.306  25.455  1.00  0.00     0.157 HD
ATOM    514  H62   A A  22     -14.886  19.672  26.154  1.00  0.00     0.157 HD
ATOM    515  N7    A A  22     -15.104  17.057  23.020  1.00  0.00    -0.236 NA
ATOM    516 'HO2   A A  22     -10.311  15.773  18.938  1.00  0.00     0.210 HD
ATOM    517  C1'   C A  21     -18.305  16.628  19.821  1.00  0.00     0.264 C 
ATOM    518  O2'   C A  21     -17.448  15.085  18.204  1.00  0.00    -0.388 OA
ATOM    519  N1    C A  21     -17.878  17.662  20.780  1.00  0.00    -0.278 N 
ATOM    520  O4'   C A  21     -19.407  15.931  20.376  1.00  0.00    -0.353 OA
ATOM    521  C6    C A  21     -18.295  17.627  22.082  1.00  0.00     0.102 A 
ATOM    522  C2    C A  21     -17.033  18.684  20.338  1.00  0.00     0.352 A 
ATOM    523  C5    C A  21     -17.907  18.562  22.958  1.00  0.00     0.067 A 
ATOM    524  C4    C A  21     -17.045  19.591  22.479  1.00  0.00     0.128 A 
ATOM    525  N4    C A  21     -16.624  20.550  23.302  1.00  0.00    -0.384 N 
ATOM    526  N3    C A  21     -16.634  19.635  21.211  1.00  0.00    -0.177 NA
ATOM    527  H41   C A  21     -16.912  20.552  24.269  1.00  0.00     0.157 HD
ATOM    528  H42   C A  21     -16.011  21.271  22.949  1.00  0.00     0.157 HD
ATOM    529  O2    C A  21     -16.670  18.693  19.153  1.00  0.00    -0.244 OA
ATOM    530 'HO2   C A  21     -17.481  14.131  18.285  1.00  0.00     0.210 HD
BRANCH 499 531
ATOM    531  O5'   G A  23      -9.525  14.305  22.010  1.00  0.00    -0.287 OA
BRANCH 531 532
ATOM    532  C5'   G A  23      -8.577  13.998  23.030  1.00  0.00     0.216 C 
BRANCH 532 533
ATOM    533  C4'   G A  23      -7.367  14.895  22.908  1.00  0.00     0.180 C 
ATOM    534  C3'   G A  23      -7.659  16.387  22.843  1.00  0.00     0.198 C 
ATOM    535  C2'   G A  23      -6.425  16.929  22.134  1.00  0.00     0.199 C 
ATOM    536  C1'   G A  23      -6.144  15.812  21.129  1.00  0.00     0.262 C 
ATOM    537  N9    G A  23      -6.735  16.049  19.815  1.00  0.00    -0.293 N 
ATOM    538  O4'   G A  23      -6.687  14.613  21.656  1.00  0.00    -0.353 OA
ATOM    539  C4    G A  23      -6.404  17.057  18.943  1.00  0.00     0.187 A 
ATOM    540  C8    G A  23      -7.726  15.319  19.205  1.00  0.00     0.214 A 
ATOM    541  N3    G A  23      -5.471  18.009  19.150  1.00  0.00    -0.044 NA
ATOM    542  C5    G A  23      -7.222  16.877  17.848  1.00  0.00     0.173 A 
ATOM    543  C2    G A  23      -5.383  18.843  18.129  1.00  0.00     0.703 A 
ATOM    544  N2    G A  23      -4.506  19.850  18.172  1.00  0.00    -0.233 N 
ATOM    545  N1    G A  23      -6.147  18.752  16.995  1.00  0.00    -0.153 N 
ATOM    546  H21   G A  23      -3.922  19.954  18.989  1.00  0.00     0.174 HD
ATOM    547  H22   G A  23      -4.433  20.500  17.405  1.00  0.00     0.174 HD
ATOM    548  H1    G A  23      -6.005  19.441  16.273  1.00  0.00     0.187 HD
ATOM    549  C6    G A  23      -7.114  17.782  16.758  1.00  0.00     0.292 A 
ATOM    550  O6    G A  23      -7.746  17.791  15.697  1.00  0.00    -0.265 OA
ATOM    551  N7    G A  23      -8.050  15.776  18.026  1.00  0.00    -0.234 NA
BRANCH 534 552
ATOM    552  O3'   G A  23      -7.832  16.947  24.142  1.00  0.00    -0.279 OA
BRANCH 552 553
ATOM    553  P     A A  24      -8.992  18.033  24.396  1.00  0.00     0.408 P 
ATOM    554  OP1   A A  24      -8.930  19.014  23.281  1.00  0.00    -0.624 OA
ATOM    555  OP2   A A  24      -8.892  18.512  25.798  1.00  0.00    -0.624 OA
BRANCH 553 556
ATOM    556  O5'   A A  24     -10.342  17.200  24.248  1.00  0.00    -0.287 OA
BRANCH 556 557
ATOM    557  C5'   A A  24     -11.197  16.980  25.369  1.00  0.00     0.216 C 
BRANCH 557 558
ATOM    558  C4'   A A  24     -12.281  15.991  25.012  1.00  0.00     0.180 C 
ATOM    559  C3'   A A  24     -13.101  15.468  26.184  1.00  0.00     0.198 C 
ATOM    560  O3'   A A  24     -14.187  16.338  26.492  1.00  0.00    -0.279 OA
ATOM    561  C2'   A A  24     -13.570  14.110  25.677  1.00  0.00     0.199 C 
ATOM    562  P     T A  25     -14.735  16.426  28.003  1.00  0.00     0.408 P 
ATOM    563  OP1   T A  25     -15.922  17.319  27.992  1.00  0.00    -0.624 OA
ATOM    564  O5'   T A  25     -15.226  14.944  28.323  1.00  0.00    -0.287 OA
ATOM    565  OP2   T A  25     -13.591  16.738  28.898  1.00  0.00    -0.624 OA
ATOM    566  C5'   T A  25     -16.347  14.379  27.647  1.00  0.00     0.216 C 
ATOM    567  C4'   T A  25     -16.652  13.006  28.199  1.00  0.00     0.180 C 
ATOM    568  C3'   T A  25     -16.638  12.895  29.717  1.00  0.00     0.198 C 
ATOM    569  O4'   T A  25     -15.622  12.082  27.755  1.00  0.00    -0.353 OA
ATOM    570  O3'   T A  25     -17.896  13.255  30.279  1.00  0.00    -0.279 OA
ATOM    571  C2'   T A  25     -16.301  11.424  29.940  1.00  0.00     0.199 C 
ATOM    572  P     C A  26     -17.997  13.625  31.841  1.00  0.00     0.408 P 
ATOM    573  OP1   C A  26     -19.363  14.152  32.084  1.00  0.00    -0.624 OA
ATOM    574  O5'   C A  26     -17.872  12.218  32.578  1.00  0.00    -0.287 OA
ATOM    575  OP2   C A  26     -16.816  14.451  32.204  1.00  0.00    -0.624 OA
ATOM    576  C5'   C A  26     -17.254  12.112  33.860  1.00  0.00     0.216 C 
ATOM    577  C4'   C A  26     -16.982  10.664  34.189  1.00  0.00     0.180 C 
ATOM    578  C3'   C A  26     -16.255  10.430  35.508  1.00  0.00     0.198 C 
ATOM    579  O4'   C A  26     -16.107  10.108  33.168  1.00  0.00    -0.353 OA
ATOM    580  O3'   C A  26     -17.174  10.281  36.587  1.00  0.00    -0.279 OA
ATOM    581  C2'   C A  26     -15.466   9.156  35.236  1.00  0.00     0.199 C 
ATOM    582  P     A A  27     -17.201  11.366  37.774  1.00  0.00     0.408 P 
ATOM    583  OP1   A A  27     -18.599  11.438  38.271  1.00  0.00    -0.624 OA
ATOM    584  OP2   A A  27     -16.524  12.605  37.312  1.00  0.00    -0.624 OA
ATOM    585  O5'   A A  27     -16.307  10.707  38.916  1.00  0.00    -0.287 OA
ATOM    586  C5'   A A  27     -16.549   9.371  39.356  1.00  0.00     0.216 C 
ATOM    587  C4'   A A  27     -15.389   8.876  40.187  1.00  0.00     0.180 C 
ATOM    588  C3'   A A  27     -14.637   9.942  40.973  1.00  0.00     0.198 C 
ATOM    589  O4'   A A  27     -14.384   8.305  39.302  1.00  0.00    -0.353 OA
ATOM    590  C2'   A A  27     -13.262   9.310  41.128  1.00  0.00     0.199 C 
ATOM    591  O2'   A A  27     -13.271   8.287  42.105  1.00  0.00    -0.388 OA
ATOM    592  C1'   A A  27     -13.090   8.671  39.752  1.00  0.00     0.262 C 
ATOM    593 'HO2   A A  27     -13.895   8.557  42.780  1.00  0.00     0.210 HD
ATOM    594  N9    A A  27     -12.491   9.565  38.762  1.00  0.00    -0.294 N 
ATOM    595  C4    A A  27     -11.151   9.823  38.605  1.00  0.00     0.167 A 
ATOM    596  C8    A A  27     -13.132  10.319  37.810  1.00  0.00     0.214 A 
ATOM    597  N3    A A  27     -10.134   9.308  39.317  1.00  0.00    -0.222 NA
ATOM    598  C5    A A  27     -11.059  10.726  37.562  1.00  0.00     0.149 A 
ATOM    599  C2    A A  27      -8.970   9.788  38.886  1.00  0.00     0.237 A 
ATOM    600  N1    A A  27      -8.725  10.659  37.898  1.00  0.00    -0.222 NA
ATOM    601  C6    A A  27      -9.770  11.157  37.202  1.00  0.00     0.155 A 
ATOM    602  N6    A A  27      -9.524  12.023  36.219  1.00  0.00    -0.382 N 
ATOM    603  H61   A A  27     -10.289  12.409  35.684  1.00  0.00     0.157 HD
ATOM    604  H62   A A  27      -8.573  12.293  36.010  1.00  0.00     0.157 HD
ATOM    605  N7    A A  27     -12.320  11.032  37.066  1.00  0.00    -0.236 NA
ATOM    606  O2'   C A  26     -16.293   8.011  35.325  1.00  0.00    -0.388 OA
ATOM    607  C1'   C A  26     -15.067   9.364  33.777  1.00  0.00     0.264 C 
ATOM    608 'HO2   C A  26     -17.056   8.264  35.844  1.00  0.00     0.210 HD
ATOM    609  N1    C A  26     -13.804  10.101  33.597  1.00  0.00    -0.278 N 
ATOM    610  C6    C A  26     -13.788  11.325  32.988  1.00  0.00     0.102 A 
ATOM    611  C2    C A  26     -12.616   9.528  34.058  1.00  0.00     0.352 A 
ATOM    612  C5    C A  26     -12.643  11.997  32.817  1.00  0.00     0.067 A 
ATOM    613  C4    C A  26     -11.448  11.388  33.295  1.00  0.00     0.128 A 
ATOM    614  N4    C A  26     -10.278  12.008  33.152  1.00  0.00    -0.384 N 
ATOM    615  N3    C A  26     -11.452  10.195  33.892  1.00  0.00    -0.177 NA
ATOM    616  H41   C A  26     -10.230  12.913  32.705  1.00  0.00     0.157 HD
ATOM    617  H42   C A  26      -9.433  11.568  33.488  1.00  0.00     0.157 HD
ATOM    618  O2    C A  26     -12.656   8.419  34.609  1.00  0.00    -0.244 OA
ATOM    619  C1'   T A  25     -15.325  11.161  28.791  1.00  0.00     0.264 C 
ATOM    620  O2'   T A  25     -17.441  10.605  29.762  1.00  0.00    -0.388 OA
ATOM    621  N1    T A  25     -13.914  11.323  29.166  1.00  0.00    -0.280 N 
ATOM    622  C6    T A  25     -13.261  12.524  28.994  1.00  0.00     0.104 A 
ATOM    623  C2    T A  25     -13.259  10.227  29.697  1.00  0.00     0.331 A 
ATOM    624  C5    T A  25     -11.977  12.693  29.324  1.00  0.00     0.092 A 
ATOM    625  C4    T A  25     -11.233  11.606  29.879  1.00  0.00     0.250 A 
ATOM    626  N3    T A  25     -11.946  10.439  30.023  1.00  0.00    -0.275 N 
ATOM    627  O4    T A  25     -10.055  11.642  30.235  1.00  0.00    -0.268 OA
ATOM    628  H3    T A  25     -11.447   9.646  30.401  1.00  0.00     0.173 HD
ATOM    629  O2    T A  25     -13.801   9.150  29.866  1.00  0.00    -0.246 OA
ATOM    630 'HO2   T A  25     -18.171  11.046  30.195  1.00  0.00     0.210 HD
ATOM    631  C1'   A A  24     -12.338  13.645  24.902  1.00  0.00     0.262 C 
ATOM    632  O4'   A A  24     -11.665  14.803  24.439  1.00  0.00    -0.353 OA
BRANCH 588 633
ATOM    633  O3'   A A  27     -15.260  10.219  42.224  1.00  0.00    -0.279 OA
BRANCH 633 634
ATOM    634  P     G A  28     -15.881  11.677  42.500  1.00  0.00     0.408 P 
ATOM    635  OP2   G A  28     -15.146  12.302  43.630  1.00  0.00    -0.624 OA
ATOM    636  OP1   G A  28     -15.949  12.380  41.193  1.00  0.00    -0.624 OA
BRANCH 634 637
ATOM    637  O5'   G A  28     -17.372  11.377  42.975  1.00  0.00    -0.287 OA
BRANCH 637 638
ATOM    638  C5'   G A  28     -18.143  10.345  42.362  1.00  0.00     0.216 C 
BRANCH 638 639
ATOM    639  C4'   G A  28     -18.580   9.330  43.394  1.00  0.00     0.180 C 
ATOM    640  C3'   G A  28     -19.685   9.777  44.337  1.00  0.00     0.198 C 
ATOM    641  C2'   G A  28     -19.513   8.821  45.514  1.00  0.00     0.199 C 
ATOM    642  O2'   G A  28     -20.101   7.565  45.233  1.00  0.00    -0.388 OA
ATOM    643  C1'   G A  28     -17.992   8.651  45.553  1.00  0.00     0.262 C 
ATOM    644 'HO2   G A  28     -20.659   7.689  44.465  1.00  0.00     0.210 HD
ATOM    645  O4'   G A  28     -17.479   9.036  44.290  1.00  0.00    -0.353 OA
ATOM    646  N9    G A  28     -17.341   9.455  46.584  1.00  0.00    -0.293 N 
ATOM    647  C8    G A  28     -16.473  10.503  46.397  1.00  0.00     0.214 A 
ATOM    648  C4    G A  28     -17.482   9.307  47.943  1.00  0.00     0.187 A 
ATOM    649  N7    G A  28     -16.052  11.027  47.515  1.00  0.00    -0.234 NA
ATOM    650  C5    G A  28     -16.683  10.281  48.502  1.00  0.00     0.173 A 
ATOM    651  C6    G A  28     -16.618  10.383  49.917  1.00  0.00     0.292 A 
ATOM    652  O6    G A  28     -15.969  11.179  50.606  1.00  0.00    -0.265 OA
ATOM    653  N1    G A  28     -17.418   9.428  50.535  1.00  0.00    -0.153 N 
ATOM    654  C2    G A  28     -18.181   8.497  49.880  1.00  0.00     0.703 A 
ATOM    655  H1    G A  28     -17.436   9.423  51.543  1.00  0.00     0.187 HD
ATOM    656  N3    G A  28     -18.252   8.390  48.566  1.00  0.00    -0.044 NA
ATOM    657  N2    G A  28     -18.885   7.665  50.652  1.00  0.00    -0.233 N 
ATOM    658  H21   G A  28     -19.463   6.961  50.217  1.00  0.00     0.174 HD
ATOM    659  H22   G A  28     -18.839   7.737  51.658  1.00  0.00     0.174 HD
BRANCH 640 660
ATOM    660  O3'   G A  28     -20.970   9.668  43.728  1.00  0.00    -0.279 OA
BRANCH 660 661
ATOM    661  P     A A  29     -21.159   8.750  42.419  1.00  0.00     0.408 P 
ATOM    662  OP2   A A  29     -22.466   8.052  42.520  1.00  0.00    -0.624 OA
ATOM    663  OP1   A A  29     -20.875   9.608  41.240  1.00  0.00    -0.624 OA
BRANCH 661 664
ATOM    664  O5'   A A  29     -19.998   7.666  42.535  1.00  0.00    -0.287 OA
BRANCH 664 665
ATOM    665  C5'   A A  29     -20.203   6.321  42.104  1.00  0.00     0.216 C 
BRANCH 665 666
ATOM    666  C4'   A A  29     -19.765   6.160  40.666  1.00  0.00     0.180 C 
ATOM    667  O4'   A A  29     -18.452   6.755  40.498  1.00  0.00    -0.353 OA
ATOM    668  C1'   A A  29     -17.731   6.038  39.511  1.00  0.00     0.262 C 
ATOM    669  N9    A A  29     -16.467   5.592  40.098  1.00  0.00    -0.294 N 
ATOM    670  C2'   A A  29     -18.619   4.894  39.016  1.00  0.00     0.199 C 
ATOM    671  C8    A A  29     -16.179   5.388  41.426  1.00  0.00     0.214 A 
ATOM    672  C4    A A  29     -15.314   5.291  39.414  1.00  0.00     0.167 A 
ATOM    673  N7    A A  29     -14.949   4.987  41.643  1.00  0.00    -0.236 NA
ATOM    674  C5    A A  29     -14.390   4.922  40.375  1.00  0.00     0.149 A 
ATOM    675  C6    A A  29     -13.108   4.561  39.920  1.00  0.00     0.155 A 
ATOM    676  N6    A A  29     -12.114   4.186  40.727  1.00  0.00    -0.382 N 
ATOM    677  N1    A A  29     -12.878   4.601  38.590  1.00  0.00    -0.222 NA
ATOM    678  H62   A A  29     -11.213   3.938  40.340  1.00  0.00     0.157 HD
ATOM    679  H61   A A  29     -12.264   4.150  41.726  1.00  0.00     0.157 HD
ATOM    680  C2    A A  29     -13.875   4.980  37.778  1.00  0.00     0.237 A 
ATOM    681  N3    A A  29     -15.119   5.342  38.085  1.00  0.00    -0.222 NA
ATOM    682  O2'   A A  29     -19.303   5.326  37.854  1.00  0.00    -0.388 OA
ATOM    683  C3'   A A  29     -19.582   4.729  40.187  1.00  0.00     0.198 C 
ATOM    684 'HO2   A A  29     -20.212   5.044  37.952  1.00  0.00     0.210 HD
ATOM    685  O3'   A A  29     -20.823   4.148  39.795  1.00  0.00    -0.279 OA
ATOM    686  P     A A  30     -21.026   2.554  39.885  1.00  0.00     0.408 P 
ATOM    687  O5'   A A  30     -20.225   1.991  38.627  1.00  0.00    -0.287 OA
ATOM    688  OP2   A A  30     -20.363   2.059  41.118  1.00  0.00    -0.624 OA
ATOM    689  OP1   A A  30     -22.473   2.296  39.677  1.00  0.00    -0.624 OA
ATOM    690  C5'   A A  30     -20.600   2.350  37.298  1.00  0.00     0.216 C 
ATOM    691  C4'   A A  30     -19.585   1.825  36.309  1.00  0.00     0.180 C 
ATOM    692  C3'   A A  30     -19.204   0.361  36.463  1.00  0.00     0.198 C 
ATOM    693  O4'   A A  30     -18.330   2.525  36.494  1.00  0.00    -0.353 OA
ATOM    694  O3'   A A  30     -20.161  -0.495  35.843  1.00  0.00    -0.279 OA
ATOM    695  C2'   A A  30     -17.839   0.299  35.783  1.00  0.00     0.199 C 
ATOM    696  P     G A  31     -20.191  -2.062  36.206  1.00  0.00     0.408 P 
ATOM    697  O5'   G A  31     -18.929  -2.655  35.432  1.00  0.00    -0.287 OA
ATOM    698  OP1   G A  31     -21.416  -2.624  35.585  1.00  0.00    -0.624 OA
ATOM    699  OP2   G A  31     -19.974  -2.215  37.668  1.00  0.00    -0.624 OA
ATOM    700  C5'   G A  31     -17.744  -3.044  36.130  1.00  0.00     0.216 C 
ATOM    701  C4'   G A  31     -17.746  -4.536  36.378  1.00  0.00     0.180 C 
ATOM    702  O4'   G A  31     -19.120  -5.014  36.333  1.00  0.00    -0.353 OA
ATOM    703  C3'   G A  31     -16.992  -5.368  35.345  1.00  0.00     0.198 C 
ATOM    704  C1'   G A  31     -19.197  -6.178  35.535  1.00  0.00     0.262 C 
ATOM    705  C2'   G A  31     -17.769  -6.680  35.333  1.00  0.00     0.199 C 
ATOM    706  N9    G A  31     -19.896  -5.839  34.298  1.00  0.00    -0.293 N 
ATOM    707  O2'   G A  31     -17.415  -7.497  36.433  1.00  0.00    -0.388 OA
ATOM    708 'HO2   G A  31     -16.668  -7.075  36.861  1.00  0.00     0.210 HD
ATOM    709  C4    G A  31     -19.393  -5.915  33.019  1.00  0.00     0.187 A 
ATOM    710  C8    G A  31     -21.186  -5.382  34.178  1.00  0.00     0.214 A 
ATOM    711  N3    G A  31     -18.152  -6.318  32.679  1.00  0.00    -0.044 NA
ATOM    712  C5    G A  31     -20.418  -5.497  32.198  1.00  0.00     0.173 A 
ATOM    713  C2    G A  31     -17.963  -6.285  31.373  1.00  0.00     0.703 A 
ATOM    714  N2    G A  31     -16.783  -6.652  30.866  1.00  0.00    -0.233 N 
ATOM    715  N1    G A  31     -18.914  -5.888  30.469  1.00  0.00    -0.153 N 
ATOM    716  H22   G A  31     -16.620  -6.636  29.871  1.00  0.00     0.174 HD
ATOM    717  H21   G A  31     -16.054  -6.951  31.498  1.00  0.00     0.174 HD
ATOM    718  C6    G A  31     -20.198  -5.467  30.794  1.00  0.00     0.292 A 
ATOM    719  H1    G A  31     -18.672  -5.902  29.491  1.00  0.00     0.187 HD
ATOM    720  O6    G A  31     -20.978  -5.126  29.898  1.00  0.00    -0.265 OA
ATOM    721  N7    G A  31     -21.542  -5.165  32.942  1.00  0.00    -0.234 NA
ATOM    722  O2'   A A  30     -17.972   0.195  34.377  1.00  0.00    -0.388 OA
ATOM    723  C1'   A A  30     -17.260   1.679  36.113  1.00  0.00     0.262 C 
ATOM    724 'HO2   A A  30     -18.774  -0.300  34.210  1.00  0.00     0.210 HD
ATOM    725  N9    A A  30     -16.281   1.652  37.197  1.00  0.00    -0.294 N 
ATOM    726  C8    A A  30     -16.514   1.684  38.551  1.00  0.00     0.214 A 
ATOM    727  C4    A A  30     -14.916   1.581  37.056  1.00  0.00     0.167 A 
ATOM    728  N7    A A  30     -15.424   1.634  39.276  1.00  0.00    -0.236 NA
ATOM    729  C5    A A  30     -14.402   1.567  38.339  1.00  0.00     0.149 A 
ATOM    730  C6    A A  30     -13.003   1.491  38.464  1.00  0.00     0.155 A 
ATOM    731  N6    A A  30     -12.363   1.464  39.633  1.00  0.00    -0.382 N 
ATOM    732  N1    A A  30     -12.272   1.440  37.329  1.00  0.00    -0.222 NA
ATOM    733  H61   A A  30     -12.889   1.500  40.495  1.00  0.00     0.157 HD
ATOM    734  H62   A A  30     -11.354   1.400  39.661  1.00  0.00     0.157 HD
ATOM    735  C2    A A  30     -12.913   1.464  36.153  1.00  0.00     0.237 A 
ATOM    736  N3    A A  30     -14.219   1.531  35.907  1.00  0.00    -0.222 NA
BRANCH 703 737
ATOM    737  O3'   G A  31     -15.627  -5.545  35.720  1.00  0.00    -0.279 OA
BRANCH 737 738
ATOM    738  P     G A  32     -15.125  -5.074  37.175  1.00  0.00     0.408 P 
ATOM    739  OP2   G A  32     -13.828  -5.743  37.445  1.00  0.00    -0.624 OA
ATOM    740  OP1   G A  32     -15.212  -3.591  37.243  1.00  0.00    -0.624 OA
BRANCH 738 741
ATOM    741  O5'   G A  32     -16.208  -5.685  38.174  1.00  0.00    -0.287 OA
BRANCH 741 742
ATOM    742  C5'   G A  32     -16.812  -4.884  39.189  1.00  0.00     0.216 C 
BRANCH 742 743
ATOM    743  C4'   G A  32     -16.363  -5.344  40.555  1.00  0.00     0.180 C 
ATOM    744  C3'   G A  32     -16.943  -4.564  41.730  1.00  0.00     0.198 C 
ATOM    745  C2'   G A  32     -15.848  -4.674  42.784  1.00  0.00     0.199 C 
ATOM    746  O3'   G A  32     -18.175  -5.127  42.171  1.00  0.00    -0.279 OA
ATOM    747  O2'   G A  32     -15.895  -5.927  43.439  1.00  0.00    -0.388 OA
ATOM    748  C1'   G A  32     -14.592  -4.621  41.917  1.00  0.00     0.262 C 
ATOM    749 'HO2   G A  32     -16.804  -6.229  43.388  1.00  0.00     0.210 HD
ATOM    750  N9    G A  32     -14.071  -3.273  41.712  1.00  0.00    -0.293 N 
ATOM    751  O4'   G A  32     -14.923  -5.165  40.654  1.00  0.00    -0.353 OA
ATOM    752  C4    G A  32     -13.601  -2.423  42.683  1.00  0.00     0.187 A 
ATOM    753  C8    G A  32     -13.953  -2.600  40.520  1.00  0.00     0.214 A 
ATOM    754  C5    G A  32     -13.221  -1.278  42.016  1.00  0.00     0.173 A 
ATOM    755  N3    G A  32     -13.539  -2.688  44.005  1.00  0.00    -0.044 NA
ATOM    756  N7    G A  32     -13.447  -1.405  40.652  1.00  0.00    -0.234 NA
ATOM    757  C6    G A  32     -12.684  -0.199  42.764  1.00  0.00     0.292 A 
ATOM    758  N1    G A  32     -12.629  -0.496  44.121  1.00  0.00    -0.153 N 
ATOM    759  O6    G A  32     -12.290   0.900  42.359  1.00  0.00    -0.265 OA
ATOM    760  H1    G A  32     -12.258   0.214  44.734  1.00  0.00     0.187 HD
ATOM    761  C2    G A  32     -13.037  -1.676  44.687  1.00  0.00     0.703 A 
ATOM    762  N2    G A  32     -12.903  -1.771  46.012  1.00  0.00    -0.233 N 
ATOM    763  H21   G A  32     -13.191  -2.620  46.476  1.00  0.00     0.174 HD
ATOM    764  H22   G A  32     -12.518  -1.002  46.543  1.00  0.00     0.174 HD
ATOM    765  P     C A  33     -19.335  -4.170  42.742  1.00  0.00     0.408 P 
ATOM    766  O5'   C A  33     -18.685  -3.500  44.035  1.00  0.00    -0.287 OA
ATOM    767  OP2   C A  33     -19.588  -3.102  41.743  1.00  0.00    -0.624 OA
ATOM    768  OP1   C A  33     -20.452  -5.045  43.180  1.00  0.00    -0.624 OA
ATOM    769  C5'   C A  33     -18.621  -4.205  45.274  1.00  0.00     0.216 C 
ATOM    770  C4'   C A  33     -17.978  -3.344  46.336  1.00  0.00     0.180 C 
ATOM    771  C3'   C A  33     -18.711  -2.054  46.678  1.00  0.00     0.198 C 
ATOM    772  O4'   C A  33     -16.681  -2.895  45.863  1.00  0.00    -0.353 OA
ATOM    773  O3'   C A  33     -19.757  -2.284  47.620  1.00  0.00    -0.279 OA
ATOM    774  C2'   C A  33     -17.596  -1.181  47.245  1.00  0.00     0.199 C 
ATOM    775  P     T A  34     -20.910  -1.180  47.826  1.00  0.00     0.408 P 
ATOM    776  OP2   T A  34     -21.633  -1.004  46.540  1.00  0.00    -0.624 OA
ATOM    777  OP1   T A  34     -21.666  -1.560  49.047  1.00  0.00    -0.624 OA
ATOM    778  O5'   T A  34     -20.112   0.165  48.134  1.00  0.00    -0.287 OA
ATOM    779  C5'   T A  34     -19.449   0.357  49.384  1.00  0.00     0.216 C 
ATOM    780  C4'   T A  34     -19.037   1.803  49.541  1.00  0.00     0.180 C 
ATOM    781  C3'   T A  34     -20.087   2.834  49.156  1.00  0.00     0.198 C 
ATOM    782  O4'   T A  34     -17.927   2.084  48.650  1.00  0.00    -0.353 OA
ATOM    783  C2'   T A  34     -19.241   4.063  48.842  1.00  0.00     0.199 C 
ATOM    784  O3'   T A  34     -21.007   3.061  50.220  1.00  0.00    -0.279 OA
ATOM    785  O2'   T A  34     -18.852   4.725  50.031  1.00  0.00    -0.388 OA
ATOM    786  C1'   T A  34     -18.004   3.426  48.203  1.00  0.00     0.264 C 
ATOM    787 'HO2   T A  34     -19.413   4.376  50.724  1.00  0.00     0.210 HD
ATOM    788  N1    T A  34     -18.032   3.422  46.733  1.00  0.00    -0.280 N 
ATOM    789  C2    T A  34     -17.209   4.315  46.069  1.00  0.00     0.331 A 
ATOM    790  C6    T A  34     -18.852   2.561  46.038  1.00  0.00     0.104 A 
ATOM    791  N3    T A  34     -17.287   4.266  44.701  1.00  0.00    -0.275 N 
ATOM    792  O2    T A  34     -16.467   5.088  46.646  1.00  0.00    -0.246 OA
ATOM    793  H3    T A  34     -16.702   4.915  44.196  1.00  0.00     0.173 HD
ATOM    794  C4    T A  34     -18.081   3.436  43.944  1.00  0.00     0.250 A 
ATOM    795  C5    T A  34     -18.900   2.543  44.702  1.00  0.00     0.092 A 
ATOM    796  O4    T A  34     -18.036   3.512  42.716  1.00  0.00    -0.268 OA
ATOM    797  P     G A  35     -22.578   2.806  49.989  1.00  0.00     0.408 P 
ATOM    798  OP1   G A  35     -23.239   2.920  51.315  1.00  0.00    -0.624 OA
ATOM    799  O5'   G A  35     -23.041   4.041  49.093  1.00  0.00    -0.287 OA
ATOM    800  OP2   G A  35     -22.745   1.562  49.192  1.00  0.00    -0.624 OA
ATOM    801  C5'   G A  35     -22.593   5.366  49.378  1.00  0.00     0.216 C 
ATOM    802  C4'   G A  35     -23.166   6.340  48.375  1.00  0.00     0.180 C 
ATOM    803  C3'   G A  35     -24.546   5.987  47.836  1.00  0.00     0.198 C 
ATOM    804  O4'   G A  35     -22.305   6.368  47.202  1.00  0.00    -0.353 OA
ATOM    805  O3'   G A  35     -25.582   6.494  48.672  1.00  0.00    -0.279 OA
ATOM    806  C2'   G A  35     -24.535   6.635  46.458  1.00  0.00     0.199 C 
ATOM    807  P     C A  36     -26.729   5.502  49.204  1.00  0.00     0.408 P 
ATOM    808  OP1   C A  36     -27.721   6.329  49.938  1.00  0.00    -0.624 OA
ATOM    809  O5'   C A  36     -27.419   4.967  47.872  1.00  0.00    -0.287 OA
ATOM    810  OP2   C A  36     -26.081   4.355  49.889  1.00  0.00    -0.624 OA
ATOM    811  C5'   C A  36     -27.981   5.870  46.921  1.00  0.00     0.216 C 
ATOM    812  C4'   C A  36     -28.774   5.112  45.885  1.00  0.00     0.180 C 
ATOM    813  C3'   C A  36     -29.517   3.886  46.396  1.00  0.00     0.198 C 
ATOM    814  O4'   C A  36     -27.863   4.583  44.883  1.00  0.00    -0.353 OA
ATOM    815  O3'   C A  36     -30.777   4.234  46.965  1.00  0.00    -0.279 OA
ATOM    816  C2'   C A  36     -29.658   3.044  45.135  1.00  0.00     0.199 C 
ATOM    817  P     G A  37     -31.443   3.282  48.077  1.00  0.00     0.408 P 
ATOM    818  O5'   G A  37     -31.986   2.036  47.243  1.00  0.00    -0.287 OA
ATOM    819  OP2   G A  37     -30.375   2.799  48.990  1.00  0.00    -0.624 OA
ATOM    820  OP1   G A  37     -32.611   4.008  48.636  1.00  0.00    -0.624 OA
ATOM    821  C5'   G A  37     -32.993   2.200  46.244  1.00  0.00     0.216 C 
ATOM    822  C4'   G A  37     -33.668   0.878  45.960  1.00  0.00     0.180 C 
ATOM    823  C3'   G A  37     -33.740  -0.084  47.139  1.00  0.00     0.198 C 
ATOM    824  O4'   G A  37     -32.901   0.174  44.943  1.00  0.00    -0.353 OA
ATOM    825  O3'   G A  37     -34.919   0.122  47.912  1.00  0.00    -0.279 OA
ATOM    826  C2'   G A  37     -33.722  -1.445  46.455  1.00  0.00     0.199 C 
ATOM    827  P     T A  38     -34.945  -0.313  49.461  1.00  0.00     0.408 P 
ATOM    828  OP2   T A  38     -33.735   0.234  50.124  1.00  0.00    -0.624 OA
ATOM    829  OP1   T A  38     -36.290   0.025  49.991  1.00  0.00    -0.624 OA
ATOM    830  O5'   T A  38     -34.813  -1.901  49.416  1.00  0.00    -0.287 OA
ATOM    831  C5'   T A  38     -35.838  -2.706  48.837  1.00  0.00     0.216 C 
ATOM    832  C4'   T A  38     -35.444  -4.164  48.880  1.00  0.00     0.180 C 
ATOM    833  C3'   T A  38     -34.961  -4.674  50.229  1.00  0.00     0.198 C 
ATOM    834  O4'   T A  38     -34.313  -4.378  47.993  1.00  0.00    -0.353 OA
ATOM    835  O3'   T A  38     -36.048  -5.042  51.074  1.00  0.00    -0.279 OA
ATOM    836  C2'   T A  38     -34.100  -5.867  49.831  1.00  0.00     0.199 C 
ATOM    837  P     G A  39     -35.863  -5.017  52.672  1.00  0.00     0.408 P 
ATOM    838  O5'   G A  39     -34.719  -6.092  52.943  1.00  0.00    -0.287 OA
ATOM    839  OP2   G A  39     -35.352  -3.679  53.064  1.00  0.00    -0.624 OA
ATOM    840  OP1   G A  39     -37.126  -5.523  53.268  1.00  0.00    -0.624 OA
ATOM    841  C5'   G A  39     -34.908  -7.465  52.605  1.00  0.00     0.216 C 
ATOM    842  C4'   G A  39     -33.649  -8.252  52.884  1.00  0.00     0.180 C 
ATOM    843  O4'   G A  39     -32.624  -7.890  51.923  1.00  0.00    -0.353 OA
ATOM    844  C3'   G A  39     -32.978  -7.980  54.222  1.00  0.00     0.198 C 
ATOM    845  C1'   G A  39     -31.347  -8.062  52.513  1.00  0.00     0.262 C 
ATOM    846  N9    G A  39     -30.594  -6.819  52.363  1.00  0.00    -0.293 N 
ATOM    847  C2'   G A  39     -31.557  -8.471  53.974  1.00  0.00     0.199 C 
ATOM    848  C4    G A  39     -29.229  -6.681  52.427  1.00  0.00     0.187 A 
ATOM    849  C8    G A  39     -31.100  -5.562  52.137  1.00  0.00     0.214 A 
ATOM    850  N3    G A  39     -28.339  -7.674  52.636  1.00  0.00    -0.044 NA
ATOM    851  C5    G A  39     -28.987  -5.336  52.236  1.00  0.00     0.173 A 
ATOM    852  C2    G A  39     -27.096  -7.228  52.649  1.00  0.00     0.703 A 
ATOM    853  N1    G A  39     -26.750  -5.914  52.471  1.00  0.00    -0.153 N 
ATOM    854  N2    G A  39     -26.090  -8.083  52.845  1.00  0.00    -0.233 N 
ATOM    855  C6    G A  39     -27.645  -4.874  52.253  1.00  0.00     0.292 A 
ATOM    856  H1    G A  39     -25.768  -5.683  52.500  1.00  0.00     0.187 HD
ATOM    857  O6    G A  39     -27.223  -3.721  52.105  1.00  0.00    -0.265 OA
ATOM    858  H22   G A  39     -25.134  -7.753  52.865  1.00  0.00     0.174 HD
ATOM    859  H21   G A  39     -26.292  -9.062  52.981  1.00  0.00     0.174 HD
ATOM    860  N7    G A  39     -30.177  -4.643  52.054  1.00  0.00    -0.234 NA
ATOM    861  C1'   T A  38     -33.439  -5.341  48.558  1.00  0.00     0.264 C 
ATOM    862  O2'   T A  38     -34.904  -6.983  49.497  1.00  0.00    -0.388 OA
ATOM    863  N1    T A  38     -32.132  -4.707  48.785  1.00  0.00    -0.280 N 
ATOM    864  C6    T A  38     -32.023  -3.356  49.028  1.00  0.00     0.104 A 
ATOM    865  C2    T A  38     -31.009  -5.515  48.746  1.00  0.00     0.331 A 
ATOM    866  C5    T A  38     -30.844  -2.759  49.233  1.00  0.00     0.092 A 
ATOM    867  C4    T A  38     -29.640  -3.527  49.208  1.00  0.00     0.250 A 
ATOM    868  N3    T A  38     -29.821  -4.868  48.965  1.00  0.00    -0.275 N 
ATOM    869  O4    T A  38     -28.499  -3.091  49.363  1.00  0.00    -0.268 OA
ATOM    870  H3    T A  38     -28.991  -5.442  48.960  1.00  0.00     0.173 HD
ATOM    871  O2    T A  38     -31.062  -6.713  48.532  1.00  0.00    -0.246 OA
ATOM    872 'HO2   T A  38     -35.796  -6.769  49.775  1.00  0.00     0.210 HD
ATOM    873  O2'   G A  37     -34.988  -1.758  45.902  1.00  0.00    -0.388 OA
ATOM    874  C1'   G A  37     -32.740  -1.181  45.318  1.00  0.00     0.262 C 
ATOM    875 'HO2   G A  37     -35.621  -1.170  46.315  1.00  0.00     0.210 HD
ATOM    876  N9    G A  37     -31.342  -1.393  45.682  1.00  0.00    -0.293 N 
ATOM    877  C8    G A  37     -30.459  -0.453  46.150  1.00  0.00     0.214 A 
ATOM    878  C4    G A  37     -30.648  -2.577  45.618  1.00  0.00     0.187 A 
ATOM    879  N7    G A  37     -29.267  -0.933  46.379  1.00  0.00    -0.234 NA
ATOM    880  C5    G A  37     -29.371  -2.277  46.047  1.00  0.00     0.173 A 
ATOM    881  C6    G A  37     -28.404  -3.315  46.089  1.00  0.00     0.292 A 
ATOM    882  O6    G A  37     -27.220  -3.252  46.440  1.00  0.00    -0.265 OA
ATOM    883  N1    G A  37     -28.935  -4.527  45.664  1.00  0.00    -0.153 N 
ATOM    884  C2    G A  37     -30.230  -4.719  45.255  1.00  0.00     0.703 A 
ATOM    885  H1    G A  37     -28.319  -5.324  45.656  1.00  0.00     0.187 HD
ATOM    886  N3    G A  37     -31.142  -3.764  45.212  1.00  0.00    -0.044 NA
ATOM    887  N2    G A  37     -30.552  -5.959  44.883  1.00  0.00    -0.233 N 
ATOM    888  H21   G A  37     -31.491  -6.155  44.572  1.00  0.00     0.174 HD
ATOM    889  H22   G A  37     -29.861  -6.697  44.911  1.00  0.00     0.174 HD
ATOM    890  O2'   C A  36     -30.698   3.531  44.310  1.00  0.00    -0.388 OA
ATOM    891  C1'   C A  36     -28.319   3.313  44.449  1.00  0.00     0.264 C 
ATOM    892 'HO2   C A  36     -31.320   3.975  44.889  1.00  0.00     0.210 HD
ATOM    893  N1    C A  36     -27.285   2.310  44.762  1.00  0.00    -0.278 N 
ATOM    894  C6    C A  36     -26.235   2.611  45.587  1.00  0.00     0.102 A 
ATOM    895  C2    C A  36     -27.396   1.037  44.202  1.00  0.00     0.352 A 
ATOM    896  C5    C A  36     -25.298   1.696  45.874  1.00  0.00     0.067 A 
ATOM    897  C4    C A  36     -25.442   0.405  45.289  1.00  0.00     0.128 A 
ATOM    898  N4    C A  36     -24.544  -0.549  45.536  1.00  0.00    -0.384 N 
ATOM    899  N3    C A  36     -26.462   0.103  44.485  1.00  0.00    -0.177 NA
ATOM    900  H41   C A  36     -23.756  -0.365  46.139  1.00  0.00     0.157 HD
ATOM    901  H42   C A  36     -24.656  -1.460  45.113  1.00  0.00     0.157 HD
ATOM    902  O2    C A  36     -28.352   0.793  43.455  1.00  0.00    -0.244 OA
ATOM    903  C1'   G A  35     -23.097   6.354  46.027  1.00  0.00     0.262 C 
ATOM    904  O2'   G A  35     -24.727   8.034  46.548  1.00  0.00    -0.388 OA
ATOM    905  N9    G A  35     -22.929   5.061  45.373  1.00  0.00    -0.293 N 
ATOM    906  C4    G A  35     -23.728   4.534  44.387  1.00  0.00     0.187 A 
ATOM    907  C8    G A  35     -21.952   4.126  45.618  1.00  0.00     0.214 A 
ATOM    908  C5    G A  35     -23.186   3.300  44.096  1.00  0.00     0.173 A 
ATOM    909  N3    G A  35     -24.812   5.127  43.845  1.00  0.00    -0.044 NA
ATOM    910  N7    G A  35     -22.066   3.056  44.880  1.00  0.00    -0.234 NA
ATOM    911  C6    G A  35     -23.806   2.500  43.100  1.00  0.00     0.292 A 
ATOM    912  N1    G A  35     -24.917   3.133  42.555  1.00  0.00    -0.153 N 
ATOM    913  O6    G A  35     -23.482   1.378  42.698  1.00  0.00    -0.265 OA
ATOM    914  C2    G A  35     -25.376   4.373  42.920  1.00  0.00     0.703 A 
ATOM    915  H1    G A  35     -25.421   2.639  41.836  1.00  0.00     0.187 HD
ATOM    916  N2    G A  35     -26.464   4.810  42.282  1.00  0.00    -0.233 N 
ATOM    917  H21   G A  35     -26.838   5.717  42.520  1.00  0.00     0.174 HD
ATOM    918  H22   G A  35     -26.910   4.247  41.575  1.00  0.00     0.174 HD
ATOM    919 'HO2   G A  35     -25.210   8.187  47.360  1.00  0.00     0.210 HD
ATOM    920  C1'   C A  33     -16.404  -1.608  46.386  1.00  0.00     0.264 C 
ATOM    921  O2'   C A  33     -17.321  -1.517  48.592  1.00  0.00    -0.388 OA
ATOM    922  N1    C A  33     -16.130  -0.697  45.262  1.00  0.00    -0.278 N 
ATOM    923  C2    C A  33     -15.487   0.517  45.520  1.00  0.00     0.352 A 
ATOM    924  C6    C A  33     -16.498  -1.024  43.986  1.00  0.00     0.102 A 
ATOM    925  O2    C A  33     -15.160   0.790  46.684  1.00  0.00    -0.244 OA
ATOM    926  N3    C A  33     -15.234   1.363  44.497  1.00  0.00    -0.177 NA
ATOM    927  C4    C A  33     -15.596   1.035  43.257  1.00  0.00     0.128 A 
ATOM    928  C5    C A  33     -16.251  -0.196  42.962  1.00  0.00     0.067 A 
ATOM    929 'HO2   C A  33     -17.953  -2.190  48.845  1.00  0.00     0.210 HD
BRANCH 847 930
ATOM    930  O2'   G A  39     -31.485  -9.882  54.063  1.00  0.00    -0.388 OA
ATOM    931 'HO2   G A  39     -31.027 -10.079  54.880  1.00  0.00     0.210 HD
ENDBRANCH 847 930
BRANCH 844 932
ATOM    932  O3'   G A  39     -33.618  -8.679  55.288  1.00  0.00    -0.279 OA
BRANCH 932 933
ATOM    933  P     G A  40     -34.238 -10.139  55.026  1.00  0.00     0.408 P 
ATOM    934  OP2   G A  40     -33.382 -11.141  55.709  1.00  0.00    -0.624 OA
ATOM    935  OP1   G A  40     -35.686 -10.068  55.352  1.00  0.00    -0.624 OA
BRANCH 933 936
ATOM    936  O5'   G A  40     -34.093 -10.345  53.452  1.00  0.00    -0.287 OA
BRANCH 936 937
ATOM    937  C5'   G A  40     -34.243 -11.635  52.863  1.00  0.00     0.216 C 
BRANCH 937 938
ATOM    938  C4'   G A  40     -33.464 -11.714  51.570  1.00  0.00     0.180 C 
ATOM    939  C3'   G A  40     -33.276 -13.112  51.000  1.00  0.00     0.198 C 
ATOM    940  C2'   G A  40     -32.011 -12.952  50.167  1.00  0.00     0.199 C 
ATOM    941  C1'   G A  40     -31.192 -12.023  51.062  1.00  0.00     0.262 C 
ATOM    942  O2'   G A  40     -32.287 -12.286  48.947  1.00  0.00    -0.388 OA
ATOM    943  N9    G A  40     -30.330 -12.730  52.005  1.00  0.00    -0.293 N 
ATOM    944  O4'   G A  40     -32.110 -11.233  51.800  1.00  0.00    -0.353 OA
ATOM    945  C8    G A  40     -30.634 -13.088  53.296  1.00  0.00     0.214 A 
ATOM    946  C4    G A  40     -29.051 -13.175  51.772  1.00  0.00     0.187 A 
ATOM    947  N7    G A  40     -29.663 -13.718  53.898  1.00  0.00    -0.234 NA
ATOM    948  C5    G A  40     -28.655 -13.782  52.946  1.00  0.00     0.173 A 
ATOM    949  C6    G A  40     -27.356 -14.351  53.017  1.00  0.00     0.292 A 
ATOM    950  N1    G A  40     -26.664 -14.193  51.822  1.00  0.00    -0.153 N 
ATOM    951  O6    G A  40     -26.818 -14.931  53.965  1.00  0.00    -0.265 OA
ATOM    952  C2    G A  40     -27.154 -13.570  50.703  1.00  0.00     0.703 A 
ATOM    953  H1    G A  40     -25.729 -14.567  51.783  1.00  0.00     0.187 HD
ATOM    954  N2    G A  40     -26.336 -13.525  49.650  1.00  0.00    -0.233 N 
ATOM    955  N3    G A  40     -28.357 -13.033  50.623  1.00  0.00    -0.044 NA
ATOM    956  H21   G A  40     -26.653 -13.080  48.802  1.00  0.00     0.174 HD
ATOM    957  H22   G A  40     -25.412 -13.932  49.694  1.00  0.00     0.174 HD
ATOM    958 'HO2   G A  40     -33.190 -12.507  48.717  1.00  0.00     0.210 HD
BRANCH 939 959
ATOM    959  O3'   G A  40     -34.396 -13.521  50.219  1.00  0.00    -0.279 OA
BRANCH 959 960
ATOM    960  P     A A  41     -34.699 -15.089  50.021  1.00  0.00     0.408 P 
ATOM    961  OP2   A A  41     -34.822 -15.716  51.362  1.00  0.00    -0.624 OA
ATOM    962  OP1   A A  41     -35.821 -15.199  49.054  1.00  0.00    -0.624 OA
BRANCH 960 963
ATOM    963  O5'   A A  41     -33.382 -15.649  49.320  1.00  0.00    -0.287 OA
BRANCH 963 964
ATOM    964  C5'   A A  41     -33.460 -16.515  48.188  1.00  0.00     0.216 C 
BRANCH 964 965
ATOM    965  C4'   A A  41     -33.178 -17.941  48.602  1.00  0.00     0.180 C 
ATOM    966  O4'   A A  41     -33.164 -18.775  47.411  1.00  0.00    -0.353 OA
ATOM    967  C1'   A A  41     -32.104 -19.711  47.493  1.00  0.00     0.262 C 
ATOM    968  C2'   A A  41     -31.511 -19.619  48.898  1.00  0.00     0.199 C 
ATOM    969  N9    A A  41     -31.149 -19.416  46.424  1.00  0.00    -0.294 N 
ATOM    970  O2'   A A  41     -32.203 -20.521  49.741  1.00  0.00    -0.388 OA
ATOM    971  C3'   A A  41     -31.826 -18.173  49.265  1.00  0.00     0.198 C 
ATOM    972 'HO2   A A  41     -32.237 -20.114  50.606  1.00  0.00     0.210 HD
ATOM    973  O3'   A A  41     -31.901 -17.980  50.676  1.00  0.00    -0.279 OA
ATOM    974  P     A A  42     -30.698 -17.242  51.449  1.00  0.00     0.408 P 
ATOM    975  OP1   A A  42     -31.101 -17.116  52.874  1.00  0.00    -0.624 OA
ATOM    976  O5'   A A  42     -29.489 -18.279  51.370  1.00  0.00    -0.287 OA
ATOM    977  OP2   A A  42     -30.322 -16.028  50.685  1.00  0.00    -0.624 OA
ATOM    978  C5'   A A  42     -29.479 -19.460  52.172  1.00  0.00     0.216 C 
ATOM    979  C4'   A A  42     -28.549 -20.492  51.575  1.00  0.00     0.180 C 
ATOM    980  C3'   A A  42     -27.071 -20.121  51.570  1.00  0.00     0.198 C 
ATOM    981  O4'   A A  42     -28.893 -20.679  50.173  1.00  0.00    -0.353 OA
ATOM    982  O3'   A A  42     -26.431 -20.507  52.785  1.00  0.00    -0.279 OA
ATOM    983  C2'   A A  42     -26.540 -20.889  50.366  1.00  0.00     0.199 C 
ATOM    984  P     T A  43     -25.075 -19.772  53.244  1.00  0.00     0.408 P 
ATOM    985  OP1   T A  43     -24.631 -20.412  54.508  1.00  0.00    -0.624 OA
ATOM    986  O5'   T A  43     -24.025 -20.142  52.103  1.00  0.00    -0.287 OA
ATOM    987  OP2   T A  43     -25.302 -18.305  53.205  1.00  0.00    -0.624 OA
ATOM    988  C5'   T A  43     -23.619 -21.492  51.886  1.00  0.00     0.216 C 
ATOM    989  C4'   T A  43     -22.703 -21.576  50.686  1.00  0.00     0.180 C 
ATOM    990  C3'   T A  43     -21.508 -20.631  50.711  1.00  0.00     0.198 C 
ATOM    991  O4'   T A  43     -23.451 -21.201  49.497  1.00  0.00    -0.353 OA
ATOM    992  O3'   T A  43     -20.402 -21.215  51.395  1.00  0.00    -0.279 OA
ATOM    993  C2'   T A  43     -21.225 -20.409  49.229  1.00  0.00     0.199 C 
ATOM    994  P     C A  44     -19.423 -20.289  52.272  1.00  0.00     0.408 P 
ATOM    995  OP2   C A  44     -20.258 -19.360  53.077  1.00  0.00    -0.624 OA
ATOM    996  OP1   C A  44     -18.463 -21.192  52.956  1.00  0.00    -0.624 OA
ATOM    997  O5'   C A  44     -18.617 -19.443  51.186  1.00  0.00    -0.287 OA
ATOM    998  C5'   C A  44     -18.411 -18.040  51.344  1.00  0.00     0.216 C 
ATOM    999  C4'   C A  44     -18.928 -17.297  50.135  1.00  0.00     0.180 C 
ATOM   1000  C3'   C A  44     -18.720 -15.790  50.162  1.00  0.00     0.198 C 
ATOM   1001  O4'   C A  44     -20.371 -17.472  50.056  1.00  0.00    -0.353 OA
ATOM   1002  O3'   C A  44     -17.443 -15.431  49.644  1.00  0.00    -0.279 OA
ATOM   1003  C2'   C A  44     -19.865 -15.285  49.295  1.00  0.00     0.199 C 
ATOM   1004  P     A A  45     -16.699 -14.111  50.187  1.00  0.00     0.408 P 
ATOM   1005  OP1   A A  45     -15.293 -14.174  49.713  1.00  0.00    -0.624 OA
ATOM   1006  OP2   A A  45     -16.980 -13.965  51.637  1.00  0.00    -0.624 OA
ATOM   1007  O5'   A A  45     -17.424 -12.918  49.417  1.00  0.00    -0.287 OA
ATOM   1008  C5'   A A  45     -17.384 -12.831  47.994  1.00  0.00     0.216 C 
ATOM   1009  C4'   A A  45     -17.932 -11.499  47.535  1.00  0.00     0.180 C 
ATOM   1010  O4'   A A  45     -19.388 -11.567  47.535  1.00  0.00    -0.353 OA
ATOM   1011  C3'   A A  45     -17.595 -10.308  48.424  1.00  0.00     0.198 C 
ATOM   1012  C1'   A A  45     -19.921 -10.391  48.115  1.00  0.00     0.262 C 
ATOM   1013  N9    A A  45     -20.492 -10.738  49.416  1.00  0.00    -0.294 N 
ATOM   1014  C2'   A A  45     -18.780  -9.381  48.190  1.00  0.00     0.199 C 
ATOM   1015  C4    A A  45     -21.520 -10.090  50.058  1.00  0.00     0.167 A 
ATOM   1016  C8    A A  45     -20.123 -11.768  50.245  1.00  0.00     0.214 A 
ATOM   1017  C5    A A  45     -21.714 -10.773  51.244  1.00  0.00     0.149 A 
ATOM   1018  N3    A A  45     -22.201  -9.013  49.629  1.00  0.00    -0.222 NA
ATOM   1019  C6    A A  45     -22.729 -10.301  52.094  1.00  0.00     0.155 A 
ATOM   1020  N7    A A  45     -20.823 -11.833  51.352  1.00  0.00    -0.236 NA
ATOM   1021  N6    A A  45     -23.034 -10.861  53.264  1.00  0.00    -0.382 N 
ATOM   1022  N1    A A  45     -23.433  -9.221  51.694  1.00  0.00    -0.222 NA
ATOM   1023  H62   A A  45     -23.787 -10.484  53.826  1.00  0.00     0.157 HD
ATOM   1024  H61   A A  45     -22.523 -11.670  53.584  1.00  0.00     0.157 HD
ATOM   1025  C2    A A  45     -23.132  -8.661  50.515  1.00  0.00     0.237 A 
ATOM   1026  O2'   A A  45     -18.674  -8.719  46.943  1.00  0.00    -0.388 OA
ATOM   1027 'HO2   A A  45     -17.754  -8.768  46.681  1.00  0.00     0.210 HD
ATOM   1028  O3'   A A  45     -16.354  -9.710  48.057  1.00  0.00    -0.279 OA
ATOM   1029  P     C A  46     -15.481  -8.939  49.166  1.00  0.00     0.408 P 
ATOM   1030  OP2   C A  46     -15.459  -9.761  50.403  1.00  0.00    -0.624 OA
ATOM   1031  O5'   C A  46     -16.317  -7.617  49.466  1.00  0.00    -0.287 OA
ATOM   1032  OP1   C A  46     -14.201  -8.542  48.527  1.00  0.00    -0.624 OA
ATOM   1033  C5'   C A  46     -16.556  -6.650  48.445  1.00  0.00     0.216 C 
ATOM   1034  C4'   C A  46     -17.619  -5.673  48.889  1.00  0.00     0.180 C 
ATOM   1035  O4'   C A  46     -18.852  -6.399  49.145  1.00  0.00    -0.353 OA
ATOM   1036  C3'   C A  46     -17.329  -4.941  50.193  1.00  0.00     0.198 C 
ATOM   1037  C1'   C A  46     -19.502  -5.854  50.280  1.00  0.00     0.264 C 
ATOM   1038  C2'   C A  46     -18.726  -4.604  50.698  1.00  0.00     0.199 C 
ATOM   1039  N1    C A  46     -19.565  -6.894  51.322  1.00  0.00    -0.278 N 
ATOM   1040  O2'   C A  46     -19.263  -3.489  50.011  1.00  0.00    -0.388 OA
ATOM   1041 'HO2   C A  46     -18.528  -3.054  49.577  1.00  0.00     0.210 HD
ATOM   1042  C2    C A  46     -20.585  -6.834  52.274  1.00  0.00     0.352 A 
ATOM   1043  C6    C A  46     -18.646  -7.906  51.358  1.00  0.00     0.102 A 
ATOM   1044  N3    C A  46     -20.654  -7.788  53.230  1.00  0.00    -0.177 NA
ATOM   1045  O2    C A  46     -21.405  -5.907  52.221  1.00  0.00    -0.244 OA
ATOM   1046  C4    C A  46     -19.756  -8.774  53.253  1.00  0.00     0.128 A 
ATOM   1047  N4    C A  46     -19.867  -9.693  54.211  1.00  0.00    -0.384 N 
ATOM   1048  C5    C A  46     -18.705  -8.861  52.295  1.00  0.00     0.067 A 
ATOM   1049  H42   C A  46     -20.610  -9.619  54.890  1.00  0.00     0.157 HD
ATOM   1050  H41   C A  46     -19.207 -10.455  54.264  1.00  0.00     0.157 HD
ATOM   1051  O3'   C A  46     -16.534  -3.779  49.974  1.00  0.00    -0.279 OA
ATOM   1052  P     G A  47     -15.677  -3.157  51.183  1.00  0.00     0.408 P 
ATOM   1053  OP1   G A  47     -15.096  -1.879  50.698  1.00  0.00    -0.624 OA
ATOM   1054  O5'   G A  47     -16.766  -2.818  52.296  1.00  0.00    -0.287 OA
ATOM   1055  OP2   G A  47     -14.780  -4.215  51.716  1.00  0.00    -0.624 OA
ATOM   1056  C5'   G A  47     -17.702  -1.756  52.112  1.00  0.00     0.216 C 
ATOM   1057  C4'   G A  47     -18.464  -1.506  53.394  1.00  0.00     0.180 C 
ATOM   1058  C3'   G A  47     -17.636  -1.546  54.671  1.00  0.00     0.198 C 
ATOM   1059  O4'   G A  47     -19.442  -2.562  53.570  1.00  0.00    -0.353 OA
ATOM   1060  C2'   G A  47     -18.673  -1.906  55.731  1.00  0.00     0.199 C 
ATOM   1061  O3'   G A  47     -17.013  -0.291  54.933  1.00  0.00    -0.279 OA
ATOM   1062  C1'   G A  47     -19.607  -2.832  54.950  1.00  0.00     0.262 C 
ATOM   1063  O2'   G A  47     -19.404  -0.764  56.136  1.00  0.00    -0.388 OA
ATOM   1064  N9    G A  47     -19.350  -4.251  55.175  1.00  0.00    -0.293 N 
ATOM   1065  C8    G A  47     -18.509  -5.069  54.460  1.00  0.00     0.214 A 
ATOM   1066  C4    G A  47     -19.912  -5.034  56.153  1.00  0.00     0.187 A 
ATOM   1067  N7    G A  47     -18.495  -6.300  54.895  1.00  0.00    -0.234 NA
ATOM   1068  C5    G A  47     -19.379  -6.292  55.967  1.00  0.00     0.173 A 
ATOM   1069  C6    G A  47     -19.779  -7.339  56.842  1.00  0.00     0.292 A 
ATOM   1070  O6    G A  47     -19.421  -8.523  56.844  1.00  0.00    -0.265 OA
ATOM   1071  N1    G A  47     -20.693  -6.892  57.789  1.00  0.00    -0.153 N 
ATOM   1072  C2    G A  47     -21.162  -5.605  57.885  1.00  0.00     0.703 A 
ATOM   1073  H1    G A  47     -21.035  -7.570  58.454  1.00  0.00     0.187 HD
ATOM   1074  N2    G A  47     -22.037  -5.365  58.862  1.00  0.00    -0.233 N 
ATOM   1075  N3    G A  47     -20.798  -4.624  57.082  1.00  0.00    -0.044 NA
ATOM   1076  H21   G A  47     -22.409  -4.433  58.973  1.00  0.00     0.174 HD
ATOM   1077  H22   G A  47     -22.328  -6.104  59.487  1.00  0.00     0.174 HD
ATOM   1078 'HO2   G A  47     -18.826  -0.012  56.001  1.00  0.00     0.210 HD
ATOM   1079  C1'   C A  44     -20.984 -16.244  49.701  1.00  0.00     0.264 C 
ATOM   1080  O2'   C A  44     -19.583 -15.471  47.921  1.00  0.00    -0.388 OA
ATOM   1081  N1    C A  44     -21.786 -15.776  50.845  1.00  0.00    -0.278 N 
ATOM   1082  C6    C A  44     -21.702 -16.396  52.060  1.00  0.00     0.102 A 
ATOM   1083  C2    C A  44     -22.642 -14.684  50.669  1.00  0.00     0.352 A 
ATOM   1084  C5    C A  44     -22.429 -15.978  53.103  1.00  0.00     0.067 A 
ATOM   1085  C4    C A  44     -23.294 -14.864  52.895  1.00  0.00     0.128 A 
ATOM   1086  N4    C A  44     -24.043 -14.401  53.896  1.00  0.00    -0.384 N 
ATOM   1087  N3    C A  44     -23.385 -14.253  51.714  1.00  0.00    -0.177 NA
ATOM   1088  H41   C A  44     -23.999 -14.838  54.805  1.00  0.00     0.157 HD
ATOM   1089  H42   C A  44     -24.652 -13.609  53.744  1.00  0.00     0.157 HD
ATOM   1090  O2    C A  44     -22.699 -14.136  49.560  1.00  0.00    -0.244 OA
ATOM   1091 'HO2   C A  44     -18.630 -15.514  47.839  1.00  0.00     0.210 HD
ATOM   1092  C1'   T A  43     -22.640 -20.407  48.650  1.00  0.00     0.264 C 
ATOM   1093  O2'   T A  43     -20.511 -21.500  48.677  1.00  0.00    -0.388 OA
ATOM   1094  N1    T A  43     -23.242 -19.069  48.557  1.00  0.00    -0.280 N 
ATOM   1095  C2    T A  43     -23.233 -18.440  47.327  1.00  0.00     0.331 A 
ATOM   1096  C6    T A  43     -23.799 -18.463  49.659  1.00  0.00     0.104 A 
ATOM   1097  N3    T A  43     -23.812 -17.197  47.306  1.00  0.00    -0.275 N 
ATOM   1098  O2    T A  43     -22.750 -18.942  46.328  1.00  0.00    -0.246 OA
ATOM   1099  H3    T A  43     -23.813 -16.716  46.421  1.00  0.00     0.173 HD
ATOM   1100  C4    T A  43     -24.388 -16.534  48.366  1.00  0.00     0.250 A 
ATOM   1101  O4    T A  43     -24.876 -15.420  48.189  1.00  0.00    -0.268 OA
ATOM   1102  C5    T A  43     -24.356 -17.249  49.602  1.00  0.00     0.092 A 
ATOM   1103 'HO2   T A  43     -20.272 -22.071  49.408  1.00  0.00     0.210 HD
ATOM   1104  C1'   A A  42     -27.712 -20.758  49.395  1.00  0.00     0.262 C 
ATOM   1105  O2'   A A  42     -26.357 -22.259  50.673  1.00  0.00    -0.388 OA
ATOM   1106  N9    A A  42     -27.643 -19.571  48.545  1.00  0.00    -0.294 N 
ATOM   1107  C8    A A  42     -28.279 -18.369  48.732  1.00  0.00     0.214 A 
ATOM   1108  C4    A A  42     -26.919 -19.434  47.386  1.00  0.00     0.167 A 
ATOM   1109  N7    A A  42     -28.026 -17.486  47.799  1.00  0.00    -0.236 NA
ATOM   1110  C5    A A  42     -27.163 -18.149  46.938  1.00  0.00     0.149 A 
ATOM   1111  C6    A A  42     -26.530 -17.757  45.748  1.00  0.00     0.155 A 
ATOM   1112  N6    A A  42     -26.675 -16.552  45.196  1.00  0.00    -0.382 N 
ATOM   1113  N1    A A  42     -25.731 -18.656  45.134  1.00  0.00    -0.222 NA
ATOM   1114  H61   A A  42     -27.271 -15.869  45.646  1.00  0.00     0.157 HD
ATOM   1115  H62   A A  42     -26.195 -16.325  44.338  1.00  0.00     0.157 HD
ATOM   1116  C2    A A  42     -25.588 -19.868  45.688  1.00  0.00     0.237 A 
ATOM   1117  N3    A A  42     -26.133 -20.354  46.801  1.00  0.00    -0.222 NA
ATOM   1118 'HO2   A A  42     -26.432 -22.344  51.623  1.00  0.00     0.210 HD
ATOM   1119  C4    A A  41     -30.175 -20.259  45.948  1.00  0.00     0.167 A 
ATOM   1120  C8    A A  41     -31.038 -18.261  45.691  1.00  0.00     0.214 A 
ATOM   1121  N3    A A  41     -29.900 -21.507  46.365  1.00  0.00    -0.222 NA
ATOM   1122  C5    A A  41     -29.530 -19.559  44.944  1.00  0.00     0.149 A 
ATOM   1123  C2    A A  41     -28.888 -22.022  45.670  1.00  0.00     0.237 A 
ATOM   1124  N1    A A  41     -28.175 -21.473  44.679  1.00  0.00    -0.222 NA
ATOM   1125  C6    A A  41     -28.477 -20.218  44.284  1.00  0.00     0.155 A 
ATOM   1126  N6    A A  41     -27.767 -19.673  43.296  1.00  0.00    -0.382 N 
ATOM   1127  H61   A A  41     -27.977 -18.736  42.983  1.00  0.00     0.157 HD
ATOM   1128  H62   A A  41     -27.022 -20.200  42.864  1.00  0.00     0.157 HD
ATOM   1129  N7    A A  41     -30.085 -18.297  44.791  1.00  0.00    -0.236 NA
BRANCH 1061 1130
ATOM   1130  P     T A  48     -15.444  -0.228  55.286  1.00  0.00     0.408 P 
ATOM   1131  OP1   T A  48     -15.321   0.565  56.534  1.00  0.00    -0.624 OA
ATOM   1132  OP2   T A  48     -14.679   0.184  54.080  1.00  0.00    -0.624 OA
BRANCH 1130 1133
ATOM   1133  O5'   T A  48     -15.063  -1.737  55.634  1.00  0.00    -0.287 OA
BRANCH 1133 1134
ATOM   1134  C5'   T A  48     -14.733  -2.129  56.967  1.00  0.00     0.216 C 
BRANCH 1134 1135
ATOM   1135  C4'   T A  48     -13.307  -2.623  57.024  1.00  0.00     0.180 C 
ATOM   1136  O4'   T A  48     -13.281  -3.874  57.764  1.00  0.00    -0.353 OA
ATOM   1137  C1'   T A  48     -12.372  -4.774  57.155  1.00  0.00     0.264 C 
ATOM   1138  N1    T A  48     -13.131  -5.931  56.658  1.00  0.00    -0.280 N 
ATOM   1139  C2'   T A  48     -11.631  -4.004  56.061  1.00  0.00     0.199 C 
ATOM   1140  C2    T A  48     -12.456  -7.130  56.515  1.00  0.00     0.331 A 
ATOM   1141  C6    T A  48     -14.468  -5.830  56.343  1.00  0.00     0.104 A 
ATOM   1142  O2    T A  48     -11.277  -7.264  56.787  1.00  0.00    -0.246 OA
ATOM   1143  N3    T A  48     -13.214  -8.169  56.040  1.00  0.00    -0.275 N 
ATOM   1144  H3    T A  48     -12.744  -9.055  55.931  1.00  0.00     0.173 HD
ATOM   1145  C4    T A  48     -14.547  -8.137  55.702  1.00  0.00     0.250 A 
ATOM   1146  O4    T A  48     -15.085  -9.155  55.268  1.00  0.00    -0.268 OA
ATOM   1147  C5    T A  48     -15.175  -6.866  55.883  1.00  0.00     0.092 A 
ATOM   1148  O2'   T A  48     -10.483  -3.402  56.628  1.00  0.00    -0.388 OA
ATOM   1149  C3'   T A  48     -12.671  -2.958  55.679  1.00  0.00     0.198 C 
ATOM   1150 'HO2   T A  48     -10.181  -2.742  56.001  1.00  0.00     0.210 HD
BRANCH 1149 1151
ATOM   1151  O3'   T A  48     -12.083  -1.808  55.072  1.00  0.00    -0.279 OA
BRANCH 1151 1152
ATOM   1152  P     C A  49     -11.544  -1.886  53.556  1.00  0.00     0.408 P 
ATOM   1153  OP1   C A  49     -11.632  -0.521  52.980  1.00  0.00    -0.624 OA
ATOM   1154  OP2   C A  49     -12.217  -3.017  52.866  1.00  0.00    -0.624 OA
BRANCH 1152 1155
ATOM   1155  O5'   C A  49     -10.001  -2.255  53.709  1.00  0.00    -0.287 OA
BRANCH 1155 1156
ATOM   1156  C5'   C A  49      -8.980  -1.327  53.342  1.00  0.00     0.216 C 
BRANCH 1156 1157
ATOM   1157  C4'   C A  49      -7.874  -2.040  52.596  1.00  0.00     0.180 C 
ATOM   1158  C3'   C A  49      -8.286  -2.728  51.302  1.00  0.00     0.198 C 
ATOM   1159  C2'   C A  49      -7.230  -3.819  51.169  1.00  0.00     0.199 C 
ATOM   1160  O2'   C A  49      -5.999  -3.293  50.711  1.00  0.00    -0.388 OA
ATOM   1161  C1'   C A  49      -7.071  -4.244  52.629  1.00  0.00     0.264 C 
ATOM   1162 'HO2   C A  49      -6.206  -2.695  49.990  1.00  0.00     0.210 HD
ATOM   1163  N1    C A  49      -7.967  -5.346  53.017  1.00  0.00    -0.278 N 
ATOM   1164  O4'   C A  49      -7.367  -3.116  53.432  1.00  0.00    -0.353 OA
ATOM   1165  C2    C A  49      -7.464  -6.646  53.023  1.00  0.00     0.352 A 
ATOM   1166  C6    C A  49      -9.272  -5.111  53.354  1.00  0.00     0.102 A 
ATOM   1167  O2    C A  49      -6.276  -6.826  52.727  1.00  0.00    -0.244 OA
ATOM   1168  N3    C A  49      -8.281  -7.672  53.352  1.00  0.00    -0.177 NA
ATOM   1169  C4    C A  49      -9.554  -7.434  53.670  1.00  0.00     0.128 A 
ATOM   1170  C5    C A  49     -10.094  -6.116  53.682  1.00  0.00     0.067 A 
ATOM   1171  N4    C A  49     -10.324  -8.478  53.978  1.00  0.00    -0.384 N 
ATOM   1172  H42   C A  49      -9.935  -9.411  53.962  1.00  0.00     0.157 HD
ATOM   1173  H41   C A  49     -11.294  -8.344  54.224  1.00  0.00     0.157 HD
BRANCH 1158 1174
ATOM   1174  O3'   C A  49      -8.285  -1.832  50.192  1.00  0.00    -0.279 OA
ATOM   1175  P     G A  50      -9.652  -1.546  49.389  1.00  0.00     0.408 P 
ATOM   1176  O5'   G A  50      -9.399  -2.177  47.947  1.00  0.00    -0.287 OA
ATOM   1177  OP1   G A  50      -9.769  -0.073  49.237  1.00  0.00    -0.624 OA
ATOM   1178  OP2   G A  50     -10.754  -2.304  50.037  1.00  0.00    -0.624 OA
ATOM   1179  C5'   G A  50      -8.532  -1.546  47.004  1.00  0.00     0.216 C 
ATOM   1180  C4'   G A  50      -7.503  -2.533  46.499  1.00  0.00     0.180 C 
ATOM   1181  C3'   G A  50      -7.970  -3.464  45.387  1.00  0.00     0.198 C 
ATOM   1182  O4'   G A  50      -7.134  -3.429  47.582  1.00  0.00    -0.353 OA
ATOM   1183  C2'   G A  50      -7.032  -4.654  45.544  1.00  0.00     0.199 C 
ATOM   1184  O3'   G A  50      -7.858  -2.853  44.104  1.00  0.00    -0.279 OA
ATOM   1185  C1'   G A  50      -6.890  -4.725  47.064  1.00  0.00     0.262 C 
ATOM   1186  O2'   G A  50      -5.762  -4.381  44.980  1.00  0.00    -0.388 OA
ATOM   1187  N9    G A  50      -7.825  -5.659  47.686  1.00  0.00    -0.293 N 
ATOM   1188  C4    G A  50      -7.939  -6.999  47.408  1.00  0.00     0.187 A 
ATOM   1189  C8    G A  50      -8.761  -5.383  48.652  1.00  0.00     0.214 A 
ATOM   1190  N3    G A  50      -7.201  -7.688  46.513  1.00  0.00    -0.044 NA
ATOM   1191  C5    G A  50      -8.948  -7.459  48.228  1.00  0.00     0.173 A 
ATOM   1192  C2    G A  50      -7.546  -8.961  46.467  1.00  0.00     0.703 A 
ATOM   1193  N2    G A  50      -6.923  -9.787  45.622  1.00  0.00    -0.233 N 
ATOM   1194  N1    G A  50      -8.530  -9.518  47.241  1.00  0.00    -0.153 N 
ATOM   1195  H21   G A  50      -6.193  -9.427  45.025  1.00  0.00     0.174 HD
ATOM   1196  H22   G A  50      -7.190 -10.760  45.573  1.00  0.00     0.174 HD
ATOM   1197  H1    G A  50      -8.704 -10.503  47.127  1.00  0.00     0.187 HD
ATOM   1198  C6    G A  50      -9.302  -8.832  48.170  1.00  0.00     0.292 A 
ATOM   1199  O6    G A  50     -10.168  -9.435  48.817  1.00  0.00    -0.265 OA
ATOM   1200  N7    G A  50      -9.457  -6.428  49.009  1.00  0.00    -0.234 NA
ATOM   1201 'HO2   G A  50      -5.913  -3.784  44.245  1.00  0.00     0.210 HD
ATOM   1202  P     G A  51      -8.914  -3.220  42.945  1.00  0.00     0.408 P 
ATOM   1203  O5'   G A  51      -8.759  -4.796  42.756  1.00  0.00    -0.287 OA
ATOM   1204  OP2   G A  51     -10.283  -2.940  43.453  1.00  0.00    -0.624 OA
ATOM   1205  OP1   G A  51      -8.445  -2.558  41.701  1.00  0.00    -0.624 OA
ATOM   1206  C5'   G A  51      -7.500  -5.373  42.409  1.00  0.00     0.216 C 
ATOM   1207  C4'   G A  51      -7.692  -6.772  41.867  1.00  0.00     0.180 C 
ATOM   1208  O4'   G A  51      -7.583  -7.736  42.948  1.00  0.00    -0.353 OA
ATOM   1209  C3'   G A  51      -9.052  -7.091  41.270  1.00  0.00     0.198 C 
ATOM   1210  C1'   G A  51      -8.378  -8.873  42.644  1.00  0.00     0.262 C 
ATOM   1211  N9    G A  51      -9.339  -9.078  43.724  1.00  0.00    -0.293 N 
ATOM   1212  C2'   G A  51      -9.044  -8.613  41.292  1.00  0.00     0.199 C 
ATOM   1213  C4    G A  51      -9.986 -10.253  44.024  1.00  0.00     0.187 A 
ATOM   1214  C8    G A  51      -9.785  -8.148  44.631  1.00  0.00     0.214 A 
ATOM   1215  N3    G A  51      -9.840 -11.426  43.375  1.00  0.00    -0.044 NA
ATOM   1216  C5    G A  51     -10.792  -9.960  45.104  1.00  0.00     0.173 A 
ATOM   1217  C2    G A  51     -10.596 -12.375  43.894  1.00  0.00     0.703 A 
ATOM   1218  N2    G A  51     -10.575 -13.602  43.368  1.00  0.00    -0.233 N 
ATOM   1219  N1    G A  51     -11.431 -12.191  44.967  1.00  0.00    -0.153 N 
ATOM   1220  H22   G A  51     -11.152 -14.336  43.751  1.00  0.00     0.174 HD
ATOM   1221  H21   G A  51      -9.976 -13.786  42.575  1.00  0.00     0.174 HD
ATOM   1222  C6    G A  51     -11.598 -10.993  45.652  1.00  0.00     0.292 A 
ATOM   1223  H1    G A  51     -11.966 -12.985  45.285  1.00  0.00     0.187 HD
ATOM   1224  O6    G A  51     -12.378 -10.937  46.608  1.00  0.00    -0.265 OA
ATOM   1225  N7    G A  51     -10.654  -8.630  45.476  1.00  0.00    -0.234 NA
ATOM   1226  O2'   G A  51      -8.216  -9.137  40.270  1.00  0.00    -0.388 OA
ATOM   1227 'HO2   G A  51      -8.291  -8.542  39.524  1.00  0.00     0.210 HD
ATOM   1228  O3'   G A  51      -9.214  -6.565  39.956  1.00  0.00    -0.279 OA
ATOM   1229  P     G A  52     -10.692  -6.371  39.352  1.00  0.00     0.408 P 
ATOM   1230  O5'   G A  52     -11.286  -7.849  39.301  1.00  0.00    -0.287 OA
ATOM   1231  OP2   G A  52     -11.492  -5.580  40.321  1.00  0.00    -0.624 OA
ATOM   1232  OP1   G A  52     -10.538  -5.884  37.957  1.00  0.00    -0.624 OA
ATOM   1233  C5'   G A  52     -10.859  -8.776  38.303  1.00  0.00     0.216 C 
ATOM   1234  C4'   G A  52     -11.423 -10.151  38.582  1.00  0.00     0.180 C 
ATOM   1235  O4'   G A  52     -11.184 -10.517  39.966  1.00  0.00    -0.353 OA
ATOM   1236  C3'   G A  52     -12.931 -10.298  38.454  1.00  0.00     0.198 C 
ATOM   1237  C1'   G A  52     -12.186 -11.428  40.389  1.00  0.00     0.262 C 
ATOM   1238  C2'   G A  52     -13.189 -11.577  39.242  1.00  0.00     0.199 C 
ATOM   1239  N9    G A  52     -12.789 -10.924  41.618  1.00  0.00    -0.293 N 
ATOM   1240  O2'   G A  52     -12.842 -12.722  38.486  1.00  0.00    -0.388 OA
ATOM   1241 'HO2   G A  52     -12.742 -12.434  37.579  1.00  0.00     0.210 HD
ATOM   1242  C8    G A  52     -12.645  -9.671  42.165  1.00  0.00     0.214 A 
ATOM   1243  C4    G A  52     -13.627 -11.618  42.459  1.00  0.00     0.187 A 
ATOM   1244  N7    G A  52     -13.317  -9.512  43.272  1.00  0.00    -0.234 NA
ATOM   1245  C5    G A  52     -13.945 -10.736  43.470  1.00  0.00     0.173 A 
ATOM   1246  C6    G A  52     -14.811 -11.170  44.508  1.00  0.00     0.292 A 
ATOM   1247  O6    G A  52     -15.212 -10.542  45.494  1.00  0.00    -0.265 OA
ATOM   1248  N1    G A  52     -15.218 -12.486  44.318  1.00  0.00    -0.153 N 
ATOM   1249  C2    G A  52     -14.840 -13.283  43.269  1.00  0.00     0.703 A 
ATOM   1250  H1    G A  52     -15.839 -12.882  45.007  1.00  0.00     0.187 HD
ATOM   1251  N2    G A  52     -15.340 -14.521  43.260  1.00  0.00    -0.233 N 
ATOM   1252  N3    G A  52     -14.033 -12.894  42.297  1.00  0.00    -0.044 NA
ATOM   1253  H21   G A  52     -15.093 -15.149  42.508  1.00  0.00     0.174 HD
ATOM   1254  H22   G A  52     -15.961 -14.828  43.995  1.00  0.00     0.174 HD
ATOM   1255  O3'   G A  52     -13.349 -10.399  37.096  1.00  0.00    -0.279 OA
ATOM   1256  P     G A  53     -14.870 -10.050  36.700  1.00  0.00     0.408 P 
ATOM   1257  OP2   G A  53     -15.240  -8.762  37.337  1.00  0.00    -0.624 OA
ATOM   1258  OP1   G A  53     -14.985 -10.199  35.226  1.00  0.00    -0.624 OA
ATOM   1259  O5'   G A  53     -15.724 -11.209  37.382  1.00  0.00    -0.287 OA
ATOM   1260  C5'   G A  53     -15.538 -12.573  37.007  1.00  0.00     0.216 C 
ATOM   1261  C4'   G A  53     -16.421 -13.472  37.843  1.00  0.00     0.180 C 
ATOM   1262  C3'   G A  53     -17.896 -13.110  37.883  1.00  0.00     0.198 C 
ATOM   1263  O4'   G A  53     -16.024 -13.390  39.237  1.00  0.00    -0.353 OA
ATOM   1264  O3'   G A  53     -18.585 -13.550  36.715  1.00  0.00    -0.279 OA
ATOM   1265  C2'   G A  53     -18.362 -13.830  39.143  1.00  0.00     0.199 C 
ATOM   1266  P     T A  54     -19.981 -12.864  36.306  1.00  0.00     0.408 P 
ATOM   1267  OP2   T A  54     -19.822 -11.389  36.375  1.00  0.00    -0.624 OA
ATOM   1268  O5'   T A  54     -20.984 -13.310  37.461  1.00  0.00    -0.287 OA
ATOM   1269  OP1   T A  54     -20.428 -13.495  35.038  1.00  0.00    -0.624 OA
ATOM   1270  C5'   T A  54     -21.321 -14.683  37.650  1.00  0.00     0.216 C 
ATOM   1271  C4'   T A  54     -22.263 -14.835  38.821  1.00  0.00     0.180 C 
ATOM   1272  O4'   T A  54     -21.594 -14.407  40.036  1.00  0.00    -0.353 OA
ATOM   1273  C3'   T A  54     -23.516 -13.974  38.780  1.00  0.00     0.198 C 
ATOM   1274  C1'   T A  54     -22.546 -13.854  40.929  1.00  0.00     0.264 C 
ATOM   1275  N1    T A  54     -22.124 -12.488  41.274  1.00  0.00    -0.280 N 
ATOM   1276  C2'   T A  54     -23.915 -13.918  40.250  1.00  0.00     0.199 C 
ATOM   1277  C6    T A  54     -21.267 -11.775  40.465  1.00  0.00     0.104 A 
ATOM   1278  C2    T A  54     -22.621 -11.939  42.441  1.00  0.00     0.331 A 
ATOM   1279  C5    T A  54     -20.873 -10.532  40.761  1.00  0.00     0.092 A 
ATOM   1280  C4    T A  54     -21.347  -9.897  41.950  1.00  0.00     0.250 A 
ATOM   1281  N3    T A  54     -22.198 -10.664  42.708  1.00  0.00    -0.275 N 
ATOM   1282  O4    T A  54     -21.072  -8.756  42.321  1.00  0.00    -0.268 OA
ATOM   1283  H3    T A  54     -22.555 -10.247  43.555  1.00  0.00     0.173 HD
ATOM   1284  O2    T A  54     -23.380 -12.536  43.183  1.00  0.00    -0.246 OA
ATOM   1285  O2'   T A  54     -24.562 -15.111  40.649  1.00  0.00    -0.388 OA
ATOM   1286 'HO2   T A  54     -24.802 -15.576  39.848  1.00  0.00     0.210 HD
ATOM   1287  O2'   G A  53     -18.536 -15.215  38.903  1.00  0.00    -0.388 OA
ATOM   1288  C1'   G A  53     -17.151 -13.642  40.059  1.00  0.00     0.262 C 
ATOM   1289 'HO2   G A  53     -18.515 -15.334  37.953  1.00  0.00     0.210 HD
ATOM   1290  N9    G A  53     -17.302 -12.533  40.997  1.00  0.00    -0.293 N 
ATOM   1291  C8    G A  53     -16.699 -11.300  40.931  1.00  0.00     0.214 A 
ATOM   1292  C4    G A  53     -18.085 -12.520  42.126  1.00  0.00     0.187 A 
ATOM   1293  N7    G A  53     -17.031 -10.511  41.916  1.00  0.00    -0.234 NA
ATOM   1294  C5    G A  53     -17.909 -11.270  42.680  1.00  0.00     0.173 A 
ATOM   1295  C6    G A  53     -18.603 -10.951  43.878  1.00  0.00     0.292 A 
ATOM   1296  O6    G A  53     -18.581  -9.897  44.525  1.00  0.00    -0.265 OA
ATOM   1297  N1    G A  53     -19.387 -12.012  44.312  1.00  0.00    -0.153 N 
ATOM   1298  C2    G A  53     -19.492 -13.224  43.682  1.00  0.00     0.703 A 
ATOM   1299  H1    G A  53     -19.919 -11.877  45.159  1.00  0.00     0.187 HD
ATOM   1300  N3    G A  53     -18.853 -13.537  42.569  1.00  0.00    -0.044 NA
ATOM   1301  N2    G A  53     -20.301 -14.118  44.254  1.00  0.00    -0.233 N 
ATOM   1302  H22   G A  53     -20.797 -13.890  45.106  1.00  0.00     0.174 HD
ATOM   1303  H21   G A  53     -20.415 -15.027  43.830  1.00  0.00     0.174 HD
BRANCH 1273 1304
ATOM   1304  O3'   T A  54     -24.530 -14.553  37.962  1.00  0.00    -0.279 OA
BRANCH 1304 1305
ATOM   1305  P     C A  55     -25.869 -13.721  37.642  1.00  0.00     0.408 P 
ATOM   1306  OP2   C A  55     -25.585 -12.277  37.842  1.00  0.00    -0.624 OA
ATOM   1307  OP1   C A  55     -26.380 -14.193  36.329  1.00  0.00    -0.624 OA
BRANCH 1305 1308
ATOM   1308  O5'   C A  55     -26.894 -14.185  38.771  1.00  0.00    -0.287 OA
BRANCH 1308 1309
ATOM   1309  C5'   C A  55     -27.437 -15.505  38.772  1.00  0.00     0.216 C 
BRANCH 1309 1310
ATOM   1310  C4'   C A  55     -28.910 -15.462  39.107  1.00  0.00     0.180 C 
ATOM   1311  O4'   C A  55     -29.574 -16.586  38.470  1.00  0.00    -0.353 OA
ATOM   1312  C1'   C A  55     -30.610 -17.067  39.309  1.00  0.00     0.264 C 
ATOM   1313  N1    C A  55     -30.330 -18.476  39.631  1.00  0.00    -0.278 N 
ATOM   1314  C2'   C A  55     -30.676 -16.157  40.536  1.00  0.00     0.199 C 
ATOM   1315  C2    C A  55     -31.404 -19.339  39.864  1.00  0.00     0.352 A 
ATOM   1316  C6    C A  55     -29.046 -18.938  39.704  1.00  0.00     0.102 A 
ATOM   1317  N3    C A  55     -31.159 -20.635  40.160  1.00  0.00    -0.177 NA
ATOM   1318  O2    C A  55     -32.558 -18.896  39.793  1.00  0.00    -0.244 OA
ATOM   1319  C4    C A  55     -29.903 -21.077  40.225  1.00  0.00     0.128 A 
ATOM   1320  N4    C A  55     -29.711 -22.362  40.518  1.00  0.00    -0.384 N 
ATOM   1321  C5    C A  55     -28.787 -20.219  39.993  1.00  0.00     0.067 A 
ATOM   1322  H42   C A  55     -30.510 -22.961  40.676  1.00  0.00     0.157 HD
ATOM   1323  H41   C A  55     -28.776 -22.738  40.577  1.00  0.00     0.157 HD
ATOM   1324  C3'   C A  55     -29.254 -15.610  40.582  1.00  0.00     0.198 C 
BRANCH 1314 1325
ATOM   1325  O2'   C A  55     -31.613 -15.127  40.286  1.00  0.00    -0.388 OA
ATOM   1326 'HO2   C A  55     -31.142 -14.429  39.830  1.00  0.00     0.210 HD
ENDBRANCH 1314 1325
BRANCH 1324 1327
ATOM   1327  O3'   C A  55     -29.174 -14.362  41.266  1.00  0.00    -0.279 OA
BRANCH 1327 1328
ATOM   1328  P     A A  56     -28.214 -14.213  42.548  1.00  0.00     0.408 P 
ATOM   1329  O5'   A A  56     -28.477 -12.727  43.059  1.00  0.00    -0.287 OA
ATOM   1330  C5'   A A  56     -28.155 -11.601  42.244  1.00  0.00     0.216 C 
ATOM   1331  C4'   A A  56     -28.252 -10.327  43.051  1.00  0.00     0.180 C 
ATOM   1332  O4'   A A  56     -29.636  -9.890  43.076  1.00  0.00    -0.353 OA
ATOM   1333  C3'   A A  56     -27.866 -10.449  44.518  1.00  0.00     0.182 C 
ATOM   1334  C1'   A A  56     -29.935  -9.319  44.337  1.00  0.00     0.262 C 
ATOM   1335  N9    A A  56     -31.012 -10.094  44.950  1.00  0.00    -0.294 N 
ATOM   1336  C2'   A A  56     -28.645  -9.305  45.160  1.00  0.00     0.198 C 
ATOM   1337  C4    A A  56     -32.111  -9.588  45.601  1.00  0.00     0.167 A 
ATOM   1338  C8    A A  56     -31.143 -11.461  45.000  1.00  0.00     0.214 A 
ATOM   1339  C5    A A  56     -32.844 -10.685  46.013  1.00  0.00     0.149 A 
ATOM   1340  N3    A A  56     -32.416  -8.294  45.802  1.00  0.00    -0.222 NA
ATOM   1341  C6    A A  56     -34.034 -10.430  46.717  1.00  0.00     0.155 A 
ATOM   1342  N7    A A  56     -32.221 -11.864  45.626  1.00  0.00    -0.236 NA
ATOM   1343  N1    A A  56     -34.369  -9.141  46.935  1.00  0.00    -0.222 NA
ATOM   1344  N6    A A  56     -34.841 -11.385  47.179  1.00  0.00    -0.382 N 
ATOM   1345  C2    A A  56     -33.558  -8.180  46.475  1.00  0.00     0.237 A 
ATOM   1346  H61   A A  56     -34.611 -12.356  47.030  1.00  0.00     0.157 HD
ATOM   1347  H62   A A  56     -35.684 -11.131  47.672  1.00  0.00     0.157 HD
ATOM   1348  O2'   A A  56     -27.992  -8.065  44.960  1.00  0.00    -0.388 OA
ATOM   1349 'HO2   A A  56     -27.056  -8.254  44.872  1.00  0.00     0.210 HD
ATOM   1350  O3'   A A  56     -26.453 -10.329  44.719  1.00  0.00    -0.390 OA
ATOM   1351 'HO3   A A  56     -26.032 -10.996  44.171  1.00  0.00     0.210 HD
ATOM   1352  OP2   A A  56     -28.679 -15.154  43.598  1.00  0.00    -0.624 OA
ATOM   1353  OP1   A A  56     -26.813 -14.290  42.063  1.00  0.00    -0.624 OA
ENDBRANCH 1327 1328
ENDBRANCH 1324 1327
ENDBRANCH 1309 1310
ENDBRANCH 1308 1309
ENDBRANCH 1305 1308
ENDBRANCH 1304 1305
ENDBRANCH 1273 1304
ENDBRANCH 1158 1174
ENDBRANCH 1156 1157
ENDBRANCH 1155 1156
ENDBRANCH 1152 1155
ENDBRANCH 1151 1152
ENDBRANCH 1149 1151
ENDBRANCH 1134 1135
ENDBRANCH 1133 1134
ENDBRANCH 1130 1133
ENDBRANCH 1061 1130
ENDBRANCH 964 965
ENDBRANCH 963 964
ENDBRANCH 960 963
ENDBRANCH 959 960
ENDBRANCH 939 959
ENDBRANCH 937 938
ENDBRANCH 936 937
ENDBRANCH 933 936
ENDBRANCH 932 933
ENDBRANCH 844 932
BRANCH 927 1354
ATOM   1354  N4    C A  33     -15.323   1.901  42.283  1.00  0.00    -0.384 N 
ATOM   1355  H42   C A  33     -14.671   1.646  41.554  1.00  0.00     0.157 HD
ATOM   1356  H41   C A  33     -15.766   2.809  42.270  1.00  0.00     0.157 HD
ENDBRANCH 927 1354
ENDBRANCH 742 743
ENDBRANCH 741 742
ENDBRANCH 738 741
ENDBRANCH 737 738
ENDBRANCH 703 737
ENDBRANCH 665 666
ENDBRANCH 664 665
ENDBRANCH 661 664
ENDBRANCH 660 661
ENDBRANCH 640 660
ENDBRANCH 638 639
ENDBRANCH 637 638
ENDBRANCH 634 637
ENDBRANCH 633 634
ENDBRANCH 588 633
BRANCH 561 1357
ATOM   1357  O2'   A A  24     -14.650  14.246  24.771  1.00  0.00    -0.388 OA
ATOM   1358 'HO2   A A  24     -15.391  13.777  25.156  1.00  0.00     0.210 HD
ENDBRANCH 561 1357
BRANCH 631 1359
ATOM   1359  N9    A A  24     -11.402  12.859  25.705  1.00  0.00    -0.294 N 
ATOM   1360  C8    A A  24     -11.516  11.546  26.090  1.00  0.00     0.214 A 
ATOM   1361  N7    A A  24     -10.506  11.116  26.807  1.00  0.00    -0.236 NA
ATOM   1362  C5    A A  24      -9.670  12.220  26.901  1.00  0.00     0.149 A 
ATOM   1363  C4    A A  24     -10.210  13.300  26.226  1.00  0.00     0.167 A 
ATOM   1364  C6    A A  24      -8.429  12.417  27.532  1.00  0.00     0.155 A 
ATOM   1365  N3    A A  24      -9.673  14.527  26.109  1.00  0.00    -0.222 NA
ATOM   1366  C2    A A  24      -8.505  14.589  26.745  1.00  0.00     0.237 A 
ATOM   1367  N1    A A  24      -7.862  13.638  27.432  1.00  0.00    -0.222 NA
ATOM   1368  N6    A A  24      -7.787  11.472  28.217  1.00  0.00    -0.382 N 
ATOM   1369  H62   A A  24      -6.898  11.687  28.648  1.00  0.00     0.157 HD
ATOM   1370  H61   A A  24      -8.189  10.551  28.307  1.00  0.00     0.157 HD
ENDBRANCH 631 1359
ENDBRANCH 557 558
ENDBRANCH 556 557
ENDBRANCH 553 556
ENDBRANCH 552 553
ENDBRANCH 534 552
BRANCH 535 1371
ATOM   1371  O2'   G A  23      -5.327  17.027  23.023  1.00  0.00    -0.388 OA
ATOM   1372 'HO2   G A  23      -4.795  16.243  22.887  1.00  0.00     0.210 HD
ENDBRANCH 535 1371
ENDBRANCH 532 533
ENDBRANCH 531 532
ENDBRANCH 499 531
ENDBRANCH 484 485
ENDBRANCH 483 484
ENDBRANCH 480 483
ENDBRANCH 479 480
ENDBRANCH 465 479
BRANCH 467 1373
ATOM   1373  O2'   C A  20     -23.240  11.997  19.864  1.00  0.00    -0.388 OA
ATOM   1374 'HO2   C A  20     -22.440  12.523  19.868  1.00  0.00     0.210 HD
ENDBRANCH 467 1373
ENDBRANCH 462 463
ENDBRANCH 459 462
ENDBRANCH 458 459
ENDBRANCH 446 458
ENDBRANCH 441 442
ENDBRANCH 425 441
ENDBRANCH 299 300
ENDBRANCH 298 299
ENDBRANCH 295 298
ENDBRANCH 294 295
ENDBRANCH 291 294
ENDBRANCH 272 273
ENDBRANCH 271 272
ENDBRANCH 268 271
ENDBRANCH 267 268
ENDBRANCH 254 267
ENDBRANCH 249 250
ENDBRANCH 248 249
ENDBRANCH 245 248
ENDBRANCH 244 245
ENDBRANCH 227 244
ENDBRANCH 222 223
ENDBRANCH 206 222
ENDBRANCH 195 196
ENDBRANCH 194 195
ENDBRANCH 191 194
ENDBRANCH 190 191
ENDBRANCH 179 190
ENDBRANCH 173 174
ENDBRANCH 172 173
ENDBRANCH 169 172
ENDBRANCH 168 169
ENDBRANCH 167 168
TORSDOF 435
ENDMDL
