MODEL 1
REMARK VINA RESULT:     -15.7      0.000      0.000
REMARK  0 active torsions:
REMARK  status: ('A' for Active; 'I' for Inactive)
REMARK       I    between atoms: O5'_2  and  C5'_3 
REMARK       I    between atoms: C5'_3  and  C4'_4 
REMARK       I    between atoms: C1'_6  and  N9_9 
REMARK       I    between atoms: C2_18  and  N2_20 
REMARK       I    between atoms: C2'_7  and  O2'_23 
REMARK       I    between atoms: C3'_8  and  O3'_25 
REMARK       I    between atoms: O3'_25  and  P_26 
REMARK       I    between atoms: P_26  and  O5'_29 
REMARK       I    between atoms: O5'_29  and  C5'_30 
REMARK       I    between atoms: C5'_30  and  C4'_31 
REMARK       I    between atoms: C1'_33  and  N9_36 
REMARK       I    between atoms: C2_45  and  N2_47 
REMARK       I    between atoms: C2'_34  and  O2'_50 
REMARK       I    between atoms: C3'_35  and  O3'_52 
REMARK       I    between atoms: O3'_52  and  P_53 
REMARK       I    between atoms: P_53  and  O5'_56 
REMARK       I    between atoms: O5'_56  and  C5'_57 
REMARK       I    between atoms: C5'_57  and  C4'_58 
REMARK       I    between atoms: C1'_60  and  N9_63 
REMARK       I    between atoms: C2_72  and  N2_74 
REMARK       I    between atoms: C2'_61  and  O2'_77 
REMARK       I    between atoms: C3'_62  and  O3'_79 
REMARK       I    between atoms: O3'_79  and  P_80 
REMARK       I    between atoms: P_80  and  O5'_83 
REMARK       I    between atoms: O5'_83  and  C5'_84 
REMARK       I    between atoms: C5'_84  and  C4'_85 
REMARK       I    between atoms: C1'_87  and  N9_90 
REMARK       I    between atoms: C2_99  and  N2_101 
REMARK       I    between atoms: C2'_88  and  O2'_104 
REMARK       I    between atoms: C3'_89  and  O3'_106 
REMARK       I    between atoms: O3'_106  and  P_107 
REMARK       I    between atoms: P_107  and  O5'_110 
REMARK       I    between atoms: O5'_110  and  C5'_111 
REMARK       I    between atoms: C5'_111  and  C4'_112 
REMARK       I    between atoms: C1'_114  and  N9_117 
REMARK       I    between atoms: C2_121  and  N2_128 
REMARK       I    between atoms: C2'_115  and  O2'_131 
REMARK       I    between atoms: C3'_116  and  O3'_133 
REMARK       I    between atoms: O3'_133  and  P_134 
REMARK       I    between atoms: P_134  and  O5'_137 
REMARK       I    between atoms: O5'_137  and  C5'_138 
REMARK       I    between atoms: C5'_138  and  C4'_139 
REMARK       I    between atoms: C1'_141  and  N9_144 
REMARK       I    between atoms: C2_148  and  N2_155 
REMARK       I    between atoms: C2'_142  and  O2'_158 
REMARK       I    between atoms: C3'_143  and  O3'_160 
REMARK       I    between atoms: O3'_160  and  P_161 
REMARK       I    between atoms: P_161  and  O5'_164 
REMARK       I    between atoms: O5'_164  and  C5'_165 
REMARK       I    between atoms: C5'_165  and  C4'_166 
REMARK       I    between atoms: C1'_168  and  N9_171 
REMARK       I    between atoms: C2_175  and  N2_182 
REMARK       I    between atoms: C2'_169  and  O2'_185 
REMARK       I    between atoms: C3'_170  and  O3'_187 
REMARK       I    between atoms: O3'_187  and  P_188 
REMARK       I    between atoms: P_188  and  O5'_191 
REMARK       I    between atoms: O5'_191  and  C5'_192 
REMARK       I    between atoms: C5'_192  and  C4'_193 
REMARK       I    between atoms: C1'_195  and  N1_198 
REMARK       I    between atoms: C2'_196  and  O2'_207 
REMARK       I    between atoms: C3'_197  and  O3'_209 
REMARK       I    between atoms: O3'_209  and  P_210 
REMARK       I    between atoms: P_210  and  O5'_213 
REMARK       I    between atoms: O5'_213  and  C5'_214 
REMARK       I    between atoms: C5'_214  and  C4'_215 
REMARK       I    between atoms: C1'_217  and  N9_220 
REMARK       I    between atoms: C6_226  and  N6_229 
REMARK       I    between atoms: C2'_218  and  O2'_232 
REMARK       I    between atoms: C3'_219  and  O3'_234 
REMARK       I    between atoms: O3'_234  and  P_235 
REMARK       I    between atoms: P_235  and  O5'_238 
REMARK       I    between atoms: O5'_238  and  C5'_239 
REMARK       I    between atoms: C5'_239  and  C4'_240 
REMARK       I    between atoms: C1'_242  and  N9_245 
REMARK       I    between atoms: C2_252  and  N2_256 
REMARK       I    between atoms: C2'_243  and  O2'_259 
REMARK       I    between atoms: C3'_244  and  O3'_261 
REMARK       I    between atoms: O3'_261  and  P_262 
REMARK       I    between atoms: P_262  and  O5'_265 
REMARK       I    between atoms: O5'_265  and  C5'_266 
REMARK       I    between atoms: C5'_266  and  C4'_267 
REMARK       I    between atoms: C1'_270  and  N1_816 
REMARK       I    between atoms: C4_819  and  N4_823 
REMARK       I    between atoms: C2'_269  and  O2'_814 
REMARK       I    between atoms: C3'_268  and  O3'_272 
REMARK       I    between atoms: O3'_272  and  P_273 
REMARK       I    between atoms: P_273  and  O5'_276 
REMARK       I    between atoms: O5'_276  and  C5'_277 
REMARK       I    between atoms: C5'_277  and  C4'_278 
REMARK       I    between atoms: C1'_280  and  N1_283 
REMARK       I    between atoms: C2'_281  and  O2'_292 
REMARK       I    between atoms: C3'_282  and  O3'_294 
REMARK       I    between atoms: O3'_294  and  P_295 
REMARK       I    between atoms: P_295  and  O5'_298 
REMARK       I    between atoms: O5'_298  and  C5'_299 
REMARK       I    between atoms: C5'_299  and  C4'_300 
REMARK       I    between atoms: C1'_302  and  N1_305 
REMARK       I    between atoms: C4_308  and  N4_312 
REMARK       I    between atoms: C2'_303  and  O2'_315 
REMARK       I    between atoms: C3'_304  and  O3'_317 
REMARK       I    between atoms: O3'_317  and  P_318 
REMARK       I    between atoms: P_318  and  O5'_321 
REMARK       I    between atoms: O5'_321  and  C5'_322 
REMARK       I    between atoms: C5'_322  and  C4'_323 
REMARK       I    between atoms: C1'_325  and  N9_328 
REMARK       I    between atoms: C6_332  and  N6_337 
REMARK       I    between atoms: C2'_326  and  O2'_340 
REMARK       I    between atoms: C3'_327  and  O3'_342 
REMARK       I    between atoms: O3'_342  and  P_343 
REMARK       I    between atoms: P_343  and  O5'_346 
REMARK       I    between atoms: O5'_346  and  C5'_347 
REMARK       I    between atoms: C5'_347  and  C4'_348 
REMARK       I    between atoms: C1'_350  and  N9_353 
REMARK       I    between atoms: C2_357  and  N2_364 
REMARK       I    between atoms: C2'_351  and  O2'_367 
REMARK       I    between atoms: C3'_352  and  O3'_369 
REMARK       I    between atoms: O3'_369  and  P_370 
REMARK       I    between atoms: P_370  and  O5'_373 
REMARK       I    between atoms: O5'_373  and  C5'_374 
REMARK       I    between atoms: C5'_374  and  C4'_375 
REMARK       I    between atoms: C1'_378  and  N1_805 
REMARK       I    between atoms: C2'_377  and  O2'_803 
REMARK       I    between atoms: C3'_376  and  O3'_380 
REMARK       I    between atoms: O3'_380  and  P_381 
REMARK       I    between atoms: P_381  and  O5'_384 
REMARK       I    between atoms: O5'_384  and  C5'_385 
REMARK       I    between atoms: C5'_385  and  C4'_386 
REMARK       I    between atoms: C1'_389  and  N1_793 
REMARK       I    between atoms: C4_797  and  N4_800 
REMARK       I    between atoms: C2'_388  and  O2'_791 
REMARK       I    between atoms: C3'_387  and  O3'_391 
REMARK       I    between atoms: O3'_391  and  P_392 
REMARK       I    between atoms: P_392  and  O5'_395 
REMARK       I    between atoms: O5'_395  and  C5'_396 
REMARK       I    between atoms: C5'_396  and  C4'_397 
REMARK       I    between atoms: C1'_400  and  N9_777 
REMARK       I    between atoms: C2_784  and  N2_788 
REMARK       I    between atoms: C2'_399  and  O2'_775 
REMARK       I    between atoms: C3'_398  and  O3'_402 
REMARK       I    between atoms: O3'_402  and  P_403 
REMARK       I    between atoms: P_403  and  O5'_406 
REMARK       I    between atoms: O5'_406  and  C5'_407 
REMARK       I    between atoms: C5'_407  and  C4'_408 
REMARK       I    between atoms: C1'_410  and  N9_413 
REMARK       I    between atoms: C6_417  and  N6_422 
REMARK       I    between atoms: C2'_411  and  O2'_425 
REMARK       I    between atoms: C3'_412  and  O3'_427 
REMARK       I    between atoms: O3'_427  and  P_428 
REMARK       I    between atoms: P_428  and  O5'_431 
REMARK       I    between atoms: O5'_431  and  C5'_432 
REMARK       I    between atoms: C5'_432  and  C4'_433 
REMARK       I    between atoms: C1'_436  and  N1_766 
REMARK       I    between atoms: C2'_435  and  O2'_764 
REMARK       I    between atoms: C3'_434  and  O3'_438 
REMARK       I    between atoms: O3'_438  and  P_439 
REMARK       I    between atoms: P_439  and  O5'_442 
REMARK       I    between atoms: O5'_442  and  C5'_443 
REMARK       I    between atoms: C5'_443  and  C4'_444 
REMARK       I    between atoms: C1'_447  and  N1_754 
REMARK       I    between atoms: C4_758  and  N4_761 
REMARK       I    between atoms: C2'_446  and  O2'_752 
REMARK       I    between atoms: C3'_445  and  O3'_449 
REMARK       I    between atoms: O3'_449  and  P_450 
REMARK       I    between atoms: P_450  and  O5'_453 
REMARK       I    between atoms: O5'_453  and  C5'_454 
REMARK       I    between atoms: C5'_454  and  C4'_455 
REMARK       I    between atoms: C1'_457  and  N1_460 
REMARK       I    between atoms: C4_463  and  N4_467 
REMARK       I    between atoms: C2'_458  and  O2'_470 
REMARK       I    between atoms: C3'_459  and  O3'_472 
REMARK       I    between atoms: O3'_472  and  P_473 
REMARK       I    between atoms: P_473  and  O5'_476 
REMARK       I    between atoms: O5'_476  and  C5'_477 
REMARK       I    between atoms: C5'_477  and  C4'_478 
REMARK       I    between atoms: C1'_481  and  N1_742 
REMARK       I    between atoms: C4_746  and  N4_749 
REMARK       I    between atoms: C2'_480  and  O2'_740 
REMARK       I    between atoms: C3'_479  and  O3'_483 
REMARK       I    between atoms: O3'_483  and  P_484 
REMARK       I    between atoms: P_484  and  O5'_487 
REMARK       I    between atoms: O5'_487  and  C5'_488 
REMARK       I    between atoms: C5'_488  and  C4'_489 
REMARK       I    between atoms: C1'_491  and  N9_494 
REMARK       I    between atoms: C2_504  and  N2_505 
REMARK       I    between atoms: C2'_492  and  O2'_508 
REMARK       I    between atoms: C3'_493  and  O3'_510 
REMARK       I    between atoms: O3'_510  and  P_511 
REMARK       I    between atoms: P_511  and  O5'_514 
REMARK       I    between atoms: O5'_514  and  C5'_515 
REMARK       I    between atoms: C5'_515  and  C4'_516 
REMARK       I    between atoms: C1'_519  and  N1_730 
REMARK       I    between atoms: C4_734  and  N4_737 
REMARK       I    between atoms: C2'_518  and  O2'_728 
REMARK       I    between atoms: C3'_517  and  O3'_521 
REMARK       I    between atoms: O3'_521  and  P_522 
REMARK       I    between atoms: P_522  and  O5'_525 
REMARK       I    between atoms: O5'_525  and  C5'_526 
REMARK       I    between atoms: C5'_526  and  C4'_527 
REMARK       I    between atoms: C1'_530  and  N1_719 
REMARK       I    between atoms: C2'_529  and  O2'_717 
REMARK       I    between atoms: C3'_528  and  O3'_532 
REMARK       I    between atoms: O3'_532  and  P_533 
REMARK       I    between atoms: P_533  and  O5'_536 
REMARK       I    between atoms: O5'_536  and  C5'_537 
REMARK       I    between atoms: C5'_537  and  C4'_538 
REMARK       I    between atoms: C1'_541  and  N1_708 
REMARK       I    between atoms: C2'_540  and  O2'_706 
REMARK       I    between atoms: C3'_539  and  O3'_543 
REMARK       I    between atoms: O3'_543  and  P_544 
REMARK       I    between atoms: P_544  and  O5'_547 
REMARK       I    between atoms: O5'_547  and  C5'_548 
REMARK       I    between atoms: C5'_548  and  C4'_549 
REMARK       I    between atoms: C1'_552  and  N1_696 
REMARK       I    between atoms: C4_700  and  N4_703 
REMARK       I    between atoms: C2'_551  and  O2'_694 
REMARK       I    between atoms: C3'_550  and  O3'_554 
REMARK       I    between atoms: O3'_554  and  P_555 
REMARK       I    between atoms: P_555  and  O5'_558 
REMARK       I    between atoms: O5'_558  and  C5'_559 
REMARK       I    between atoms: C5'_559  and  C4'_560 
REMARK       I    between atoms: C1'_563  and  N1_684 
REMARK       I    between atoms: C4_687  and  N4_691 
REMARK       I    between atoms: C2'_562  and  O2'_682 
REMARK       I    between atoms: C3'_561  and  O3'_565 
REMARK       I    between atoms: O3'_565  and  P_566 
REMARK       I    between atoms: P_566  and  O5'_569 
REMARK       I    between atoms: O5'_569  and  C5'_570 
REMARK       I    between atoms: C5'_570  and  C4'_571 
REMARK       I    between atoms: C1'_574  and  N1_672 
REMARK       I    between atoms: C4_675  and  N4_679 
REMARK       I    between atoms: C2'_573  and  O2'_670 
REMARK       I    between atoms: C3'_572  and  O3'_576 
REMARK       I    between atoms: O3'_576  and  P_577 
REMARK       I    between atoms: P_577  and  O5'_580 
REMARK       I    between atoms: O5'_580  and  C5'_581 
REMARK       I    between atoms: C5'_581  and  C4'_582 
REMARK       I    between atoms: C1'_584  and  N1_587 
REMARK       I    between atoms: C4_590  and  N4_594 
REMARK       I    between atoms: C2'_585  and  O2'_597 
REMARK       I    between atoms: C3'_586  and  O3'_599 
REMARK       I    between atoms: O3'_599  and  P_600 
REMARK       I    between atoms: P_600  and  O5'_603 
REMARK       I    between atoms: O5'_603  and  C5'_604 
REMARK       I    between atoms: C5'_604  and  C4'_605 
REMARK       I    between atoms: C1'_607  and  N1_610 
REMARK       I    between atoms: C4_613  and  N4_617 
REMARK       I    between atoms: C2'_608  and  O2'_620 
REMARK       I    between atoms: C3'_609  and  O3'_622 
REMARK       I    between atoms: O3'_622  and  P_623 
REMARK       I    between atoms: P_623  and  O5'_626 
REMARK       I    between atoms: O5'_626  and  C5'_627 
REMARK       I    between atoms: C5'_627  and  C4'_628 
REMARK       I    between atoms: C1'_631  and  N1_660 
REMARK       I    between atoms: C4_663  and  N4_667 
REMARK       I    between atoms: C2'_630  and  O2'_658 
REMARK       I    between atoms: C3'_629  and  O3'_633 
REMARK       I    between atoms: O3'_633  and  P_634 
REMARK       I    between atoms: P_634  and  O5'_637 
REMARK       I    between atoms: O5'_637  and  C5'_638 
REMARK       I    between atoms: C5'_638  and  C4'_639 
REMARK       I    between atoms: C1'_641  and  N1_644 
REMARK       I    between atoms: C4_647  and  N4_651 
REMARK       I    between atoms: C2'_642  and  O2'_654 
REMARK       I    between atoms: C3'_643  and  O3'_656 
ROOT
ATOM      1 'HO5  DG A   1       5.684  56.183  21.906  1.00  0.00     0.209 HD
ATOM      2  O5'  DG A   1       5.288  56.251  22.779  1.00  0.00    -0.398 OA
ATOM      3  C5'  DG A   1       6.313  56.719  23.660  1.00  0.00     0.198 C 
ATOM      4  C4'  DG A   1       7.687  56.429  23.098  1.00  0.00     0.180 C 
ATOM      5  O4'  DG A   1       7.655  56.625  21.657  1.00  0.00    -0.353 OA
ATOM      6  C1'  DG A   1       8.830  57.293  21.236  1.00  0.00     0.262 C 
ATOM      7  N9   DG A   1       8.453  58.607  20.722  1.00  0.00    -0.293 N 
ATOM      8  C4   DG A   1       9.282  59.516  20.109  1.00  0.00     0.187 A 
ATOM      9  N3   DG A   1      10.601  59.357  19.875  1.00  0.00    -0.044 NA
ATOM     10  C2   DG A   1      11.124  60.407  19.265  1.00  0.00     0.703 A 
ATOM     11  N2   DG A   1      12.424  60.421  18.959  1.00  0.00    -0.233 N 
ATOM     12  H21  DG A   1      13.004  59.630  19.193  1.00  0.00     0.174 HD
ATOM     13  H22  DG A   1      12.819  61.226  18.494  1.00  0.00     0.174 HD
ATOM     14  N1   DG A   1      10.410  61.522  18.912  1.00  0.00    -0.153 N 
ATOM     15  H1   DG A   1      10.907  62.266  18.449  1.00  0.00     0.187 HD
ATOM     16  C6   DG A   1       9.053  61.710  19.144  1.00  0.00     0.292 A 
ATOM     17  O6   DG A   1       8.508  62.760  18.785  1.00  0.00    -0.265 OA
ATOM     18  C5   DG A   1       8.477  60.592  19.798  1.00  0.00     0.173 A 
ATOM     19  N7   DG A   1       7.170  60.367  20.209  1.00  0.00    -0.234 NA
ATOM     20  C8   DG A   1       7.204  59.179  20.750  1.00  0.00     0.214 A 
ATOM     21  C2'  DG A   1       9.782  57.350  22.430  1.00  0.00     0.199 C 
ATOM     22  O2'  DG A   1      10.580  56.182  22.427  1.00  0.00    -0.388 OA
ATOM     23 'HO2  DG A   1      11.064  56.175  23.252  1.00  0.00     0.210 HD
ATOM     24  C3'  DG A   1       8.798  57.346  23.595  1.00  0.00     0.198 C 
ATOM     25  O3'  DG A   1       9.387  56.853  24.796  1.00  0.00    -0.279 OA
ATOM     26  P    DG A   2       9.918  57.887  25.907  1.00  0.00     0.408 P 
ATOM     27  OP1  DG A   2      11.376  57.655  26.063  1.00  0.00    -0.624 OA
ATOM     28  OP2  DG A   2       9.028  57.782  27.090  1.00  0.00    -0.624 OA
ATOM     29  O5'  DG A   2       9.697  59.317  25.239  1.00  0.00    -0.287 OA
ATOM     30  C5'  DG A   2      10.434  60.460  25.672  1.00  0.00     0.216 C 
ATOM     31  C4'  DG A   2      11.829  60.439  25.083  1.00  0.00     0.180 C 
ATOM     32  O4'  DG A   2      11.729  60.140  23.660  1.00  0.00    -0.353 OA
ATOM     33  C1'  DG A   2      12.441  61.110  22.919  1.00  0.00     0.262 C 
ATOM     34  N9   DG A   2      11.477  62.044  22.345  1.00  0.00    -0.293 N 
ATOM     35  C4   DG A   2      11.759  63.159  21.590  1.00  0.00     0.187 A 
ATOM     36  N3   DG A   2      12.989  63.589  21.234  1.00  0.00    -0.044 NA
ATOM     37  C2   DG A   2      12.934  64.694  20.511  1.00  0.00     0.703 A 
ATOM     38  N2   DG A   2      14.063  65.260  20.072  1.00  0.00    -0.233 N 
ATOM     39  H21  DG A   2      14.952  64.838  20.297  1.00  0.00     0.174 HD
ATOM     40  H22  DG A   2      14.028  66.106  19.521  1.00  0.00     0.174 HD
ATOM     41  N1   DG A   2      11.769  65.327  20.164  1.00  0.00    -0.153 N 
ATOM     42  H1   DG A   2      11.839  66.168  19.610  1.00  0.00     0.187 HD
ATOM     43  C6   DG A   2      10.493  64.905  20.516  1.00  0.00     0.292 A 
ATOM     44  O6   DG A   2       9.507  65.553  20.148  1.00  0.00    -0.265 OA
ATOM     45  C5   DG A   2      10.533  63.718  21.294  1.00  0.00     0.173 A 
ATOM     46  N7   DG A   2       9.503  62.970  21.847  1.00  0.00    -0.234 NA
ATOM     47  C8   DG A   2      10.110  61.990  22.456  1.00  0.00     0.214 A 
ATOM     48  C2'  DG A   2      13.424  61.751  23.893  1.00  0.00     0.199 C 
ATOM     49  O2'  DG A   2      14.555  60.909  24.021  1.00  0.00    -0.388 OA
ATOM     50 'HO2  DG A   2      14.522  60.530  24.900  1.00  0.00     0.210 HD
ATOM     51  C3'  DG A   2      12.589  61.759  25.168  1.00  0.00     0.198 C 
ATOM     52  O3'  DG A   2      13.392  61.825  26.345  1.00  0.00    -0.279 OA
ATOM     53  P    DG A   3      13.426  63.178  27.217  1.00  0.00     0.408 P 
ATOM     54  OP1  DG A   3      14.275  62.917  28.407  1.00  0.00    -0.624 OA
ATOM     55  OP2  DG A   3      12.033  63.655  27.401  1.00  0.00    -0.624 OA
ATOM     56  O5'  DG A   3      14.192  64.219  26.284  1.00  0.00    -0.287 OA
ATOM     57  C5'  DG A   3      15.575  64.051  25.976  1.00  0.00     0.216 C 
ATOM     58  C4'  DG A   3      16.034  65.131  25.026  1.00  0.00     0.180 C 
ATOM     59  O4'  DG A   3      15.288  65.016  23.785  1.00  0.00    -0.353 OA
ATOM     60  C1'  DG A   3      15.031  66.306  23.260  1.00  0.00     0.262 C 
ATOM     61  N9   DG A   3      13.586  66.486  23.167  1.00  0.00    -0.293 N 
ATOM     62  C4   DG A   3      12.932  67.552  22.597  1.00  0.00     0.187 A 
ATOM     63  N3   DG A   3      13.516  68.625  22.027  1.00  0.00    -0.044 NA
ATOM     64  C2   DG A   3      12.625  69.484  21.566  1.00  0.00     0.703 A 
ATOM     65  N2   DG A   3      13.036  70.608  20.972  1.00  0.00    -0.233 N 
ATOM     66  H21  DG A   3      14.025  70.783  20.884  1.00  0.00     0.174 HD
ATOM     67  H22  DG A   3      12.365  71.275  20.618  1.00  0.00     0.174 HD
ATOM     68  N1   DG A   3      11.269  69.305  21.653  1.00  0.00    -0.153 N 
ATOM     69  H1   DG A   3      10.678  70.024  21.269  1.00  0.00     0.187 HD
ATOM     70  C6   DG A   3      10.643  68.209  22.236  1.00  0.00     0.292 A 
ATOM     71  O6   DG A   3       9.408  68.148  22.259  1.00  0.00    -0.265 OA
ATOM     72  C5   DG A   3      11.588  67.276  22.739  1.00  0.00     0.173 A 
ATOM     73  N7   DG A   3      11.399  66.062  23.387  1.00  0.00    -0.234 NA
ATOM     74  C8   DG A   3      12.609  65.633  23.621  1.00  0.00     0.214 A 
ATOM     75  C2'  DG A   3      15.718  67.326  24.171  1.00  0.00     0.199 C 
ATOM     76  O2'  DG A   3      17.017  67.582  23.670  1.00  0.00    -0.388 OA
ATOM     77 'HO2  DG A   3      17.617  67.471  24.408  1.00  0.00     0.210 HD
ATOM     78  C3'  DG A   3      15.785  66.560  25.487  1.00  0.00     0.198 C 
ATOM     79  O3'  DG A   3      16.835  67.025  26.331  1.00  0.00    -0.279 OA
ATOM     80  P    DG A   4      16.566  68.246  27.342  1.00  0.00     0.408 P 
ATOM     81  OP1  DG A   4      17.886  68.678  27.871  1.00  0.00    -0.624 OA
ATOM     82  OP2  DG A   4      15.495  67.844  28.289  1.00  0.00    -0.624 OA
ATOM     83  O5'  DG A   4      15.998  69.406  26.410  1.00  0.00    -0.287 OA
ATOM     84  C5'  DG A   4      16.860  70.149  25.549  1.00  0.00     0.216 C 
ATOM     85  C4'  DG A   4      16.152  71.381  25.038  1.00  0.00     0.180 C 
ATOM     86  O4'  DG A   4      15.034  70.981  24.214  1.00  0.00    -0.353 OA
ATOM     87  C1'  DG A   4      14.062  72.008  24.224  1.00  0.00     0.262 C 
ATOM     88  N9   DG A   4      12.747  71.396  24.388  1.00  0.00    -0.293 N 
ATOM     89  C4   DG A   4      11.548  71.931  23.988  1.00  0.00     0.187 A 
ATOM     90  N3   DG A   4      11.379  73.118  23.370  1.00  0.00    -0.044 NA
ATOM     91  C2   DG A   4      10.109  73.362  23.109  1.00  0.00     0.703 A 
ATOM     92  N2   DG A   4       9.768  74.499  22.500  1.00  0.00    -0.233 N 
ATOM     93  H21  DG A   4      10.492  75.156  22.247  1.00  0.00     0.174 HD
ATOM     94  H22  DG A   4       8.799  74.703  22.296  1.00  0.00     0.174 HD
ATOM     95  N1   DG A   4       9.082  72.510  23.426  1.00  0.00    -0.153 N 
ATOM     96  H1   DG A   4       8.146  72.794  23.184  1.00  0.00     0.187 HD
ATOM     97  C6   DG A   4       9.229  71.281  24.060  1.00  0.00     0.292 A 
ATOM     98  O6   DG A   4       8.231  70.589  24.296  1.00  0.00    -0.265 OA
ATOM     99  C5   DG A   4      10.593  71.005  24.350  1.00  0.00     0.173 A 
ATOM    100  N7   DG A   4      11.180  69.908  24.967  1.00  0.00    -0.234 NA
ATOM    101  C8   DG A   4      12.455  70.185  24.968  1.00  0.00     0.214 A 
ATOM    102  C2'  DG A   4      14.418  73.002  25.335  1.00  0.00     0.199 C 
ATOM    103  O2'  DG A   4      14.921  74.182  24.737  1.00  0.00    -0.388 OA
ATOM    104 'HO2  DG A   4      14.565  74.919  25.238  1.00  0.00     0.210 HD
ATOM    105  C3'  DG A   4      15.514  72.258  26.103  1.00  0.00     0.198 C 
ATOM    106  O3'  DG A   4      16.472  73.142  26.679  1.00  0.00    -0.279 OA
ATOM    107  P    DG A   5      16.074  74.035  27.955  1.00  0.00     0.408 P 
ATOM    108  OP1  DG A   5      17.298  74.758  28.382  1.00  0.00    -0.624 OA
ATOM    109  OP2  DG A   5      15.354  73.173  28.926  1.00  0.00    -0.624 OA
ATOM    110  O5'  DG A   5      15.049  75.108  27.371  1.00  0.00    -0.287 OA
ATOM    111  C5'  DG A   5      13.771  75.309  27.970  1.00  0.00     0.216 C 
ATOM    112  C4'  DG A   5      13.012  76.381  27.225  1.00  0.00     0.180 C 
ATOM    113  O4'  DG A   5      12.436  75.795  26.024  1.00  0.00    -0.353 OA
ATOM    114  C1'  DG A   5      11.101  76.244  25.866  1.00  0.00     0.262 C 
ATOM    115  N9   DG A   5      10.206  75.112  26.090  1.00  0.00    -0.293 N 
ATOM    116  C4   DG A   5       8.837  75.113  25.960  1.00  0.00     0.187 A 
ATOM    117  N3   DG A   5       8.076  76.166  25.598  1.00  0.00    -0.044 NA
ATOM    118  C2   DG A   5       6.791  75.856  25.565  1.00  0.00     0.703 A 
ATOM    119  N2   DG A   5       5.894  76.785  25.230  1.00  0.00    -0.233 N 
ATOM    120  H21  DG A   5       6.207  77.719  25.004  1.00  0.00     0.174 HD
ATOM    121  H22  DG A   5       4.910  76.556  25.204  1.00  0.00     0.174 HD
ATOM    122  N1   DG A   5       6.293  74.614  25.859  1.00  0.00    -0.153 N 
ATOM    123  H1   DG A   5       5.294  74.485  25.803  1.00  0.00     0.187 HD
ATOM    124  C6   DG A   5       7.056  73.514  26.232  1.00  0.00     0.292 A 
ATOM    125  O6   DG A   5       6.502  72.434  26.472  1.00  0.00    -0.265 OA
ATOM    126  C5   DG A   5       8.440  73.830  26.276  1.00  0.00     0.173 A 
ATOM    127  N7   DG A   5       9.535  73.040  26.596  1.00  0.00    -0.234 NA
ATOM    128  C8   DG A   5      10.557  73.840  26.471  1.00  0.00     0.214 A 
ATOM    129  C2'  DG A   5      10.896  77.394  26.850  1.00  0.00     0.199 C 
ATOM    130  O2'  DG A   5      11.329  78.598  26.243  1.00  0.00    -0.388 OA
ATOM    131 'HO2  DG A   5      11.784  79.098  26.922  1.00  0.00     0.210 HD
ATOM    132  C3'  DG A   5      11.831  76.980  27.978  1.00  0.00     0.198 C 
ATOM    133  O3'  DG A   5      12.233  78.082  28.788  1.00  0.00    -0.279 OA
ATOM    134  P    DG A   6      11.560  78.301  30.233  1.00  0.00     0.408 P 
ATOM    135  OP1  DG A   6      12.272  79.431  30.884  1.00  0.00    -0.624 OA
ATOM    136  OP2  DG A   6      11.489  76.988  30.922  1.00  0.00    -0.624 OA
ATOM    137  O5'  DG A   6      10.076  78.774  29.900  1.00  0.00    -0.287 OA
ATOM    138  C5'  DG A   6       9.837  79.959  29.143  1.00  0.00     0.216 C 
ATOM    139  C4'  DG A   6       8.361  80.289  29.140  1.00  0.00     0.180 C 
ATOM    140  O4'  DG A   6       7.698  79.476  28.135  1.00  0.00    -0.353 OA
ATOM    141  C1'  DG A   6       6.406  79.113  28.593  1.00  0.00     0.262 C 
ATOM    142  N9   DG A   6       6.336  77.659  28.685  1.00  0.00    -0.293 N 
ATOM    143  C4   DG A   6       5.193  76.908  28.803  1.00  0.00     0.187 A 
ATOM    144  N3   DG A   6       3.932  77.386  28.840  1.00  0.00    -0.044 NA
ATOM    145  C2   DG A   6       3.043  76.419  28.970  1.00  0.00     0.703 A 
ATOM    146  N2   DG A   6       1.743  76.719  29.025  1.00  0.00    -0.233 N 
ATOM    147  H21  DG A   6       1.453  77.685  28.968  1.00  0.00     0.174 HD
ATOM    148  H22  DG A   6       1.055  75.986  29.126  1.00  0.00     0.174 HD
ATOM    149  N1   DG A   6       3.360  75.089  29.053  1.00  0.00    -0.153 N 
ATOM    150  H1   DG A   6       2.602  74.434  29.151  1.00  0.00     0.187 HD
ATOM    151  C6   DG A   6       4.650  74.572  29.014  1.00  0.00     0.292 A 
ATOM    152  O6   DG A   6       4.826  73.350  29.095  1.00  0.00    -0.265 OA
ATOM    153  C5   DG A   6       5.620  75.599  28.878  1.00  0.00     0.173 A 
ATOM    154  N7   DG A   6       7.006  75.528  28.800  1.00  0.00    -0.234 NA
ATOM    155  C8   DG A   6       7.384  76.772  28.684  1.00  0.00     0.214 A 
ATOM    156  C2'  DG A   6       6.177  79.806  29.937  1.00  0.00     0.199 C 
ATOM    157  O2'  DG A   6       5.556  81.057  29.705  1.00  0.00    -0.388 OA
ATOM    158 'HO2  DG A   6       4.848  81.132  30.346  1.00  0.00     0.210 HD
ATOM    159  C3'  DG A   6       7.610  79.979  30.428  1.00  0.00     0.198 C 
ATOM    160  O3'  DG A   6       7.733  81.028  31.383  1.00  0.00    -0.279 OA
ATOM    161  P    DG A   7       7.278  80.781  32.905  1.00  0.00     0.408 P 
ATOM    162  OP1  DG A   7       7.275  82.101  33.589  1.00  0.00    -0.624 OA
ATOM    163  OP2  DG A   7       8.097  79.672  33.458  1.00  0.00    -0.624 OA
ATOM    164  O5'  DG A   7       5.770  80.273  32.784  1.00  0.00    -0.287 OA
ATOM    165  C5'  DG A   7       4.675  81.125  33.123  1.00  0.00     0.216 C 
ATOM    166  C4'  DG A   7       3.373  80.540  32.617  1.00  0.00     0.180 C 
ATOM    167  O4'  DG A   7       3.646  79.429  31.727  1.00  0.00    -0.353 OA
ATOM    168  C1'  DG A   7       2.588  78.489  31.802  1.00  0.00     0.262 C 
ATOM    169  N9   DG A   7       3.158  77.175  32.088  1.00  0.00    -0.293 N 
ATOM    170  C4   DG A   7       2.460  76.010  32.306  1.00  0.00     0.187 A 
ATOM    171  N3   DG A   7       1.117  75.875  32.295  1.00  0.00    -0.044 NA
ATOM    172  C2   DG A   7       0.744  74.631  32.542  1.00  0.00     0.703 A 
ATOM    173  N2   DG A   7      -0.554  74.320  32.566  1.00  0.00    -0.233 N 
ATOM    174  H21  DG A   7      -1.241  75.041  32.396  1.00  0.00     0.174 HD
ATOM    175  H22  DG A   7      -0.846  73.372  32.757  1.00  0.00     0.174 HD
ATOM    176  N1   DG A   7       1.616  73.600  32.780  1.00  0.00    -0.153 N 
ATOM    177  H1   DG A   7       1.220  72.691  32.960  1.00  0.00     0.187 HD
ATOM    178  C6   DG A   7       3.002  73.713  32.797  1.00  0.00     0.292 A 
ATOM    179  O6   DG A   7       3.698  72.715  33.022  1.00  0.00    -0.265 OA
ATOM    180  C5   DG A   7       3.420  75.046  32.533  1.00  0.00     0.173 A 
ATOM    181  N7   DG A   7       4.695  75.591  32.457  1.00  0.00    -0.234 NA
ATOM    182  C8   DG A   7       4.489  76.852  32.192  1.00  0.00     0.214 A 
ATOM    183  C2'  DG A   7       1.601  78.973  32.869  1.00  0.00     0.199 C 
ATOM    184  O2'  DG A   7       0.543  79.662  32.229  1.00  0.00    -0.388 OA
ATOM    185 'HO2  DG A   7       0.411  80.475  32.717  1.00  0.00     0.210 HD
ATOM    186  C3'  DG A   7       2.467  79.934  33.679  1.00  0.00     0.198 C 
ATOM    187  O3'  DG A   7       1.693  80.932  34.340  1.00  0.00    -0.279 OA
ATOM    188  P    DT A   8       1.497  80.869  35.935  1.00  0.00     0.408 P 
ATOM    189  OP1  DT A   8       0.500  81.906  36.303  1.00  0.00    -0.624 OA
ATOM    190  OP2  DT A   8       2.840  80.886  36.570  1.00  0.00    -0.624 OA
ATOM    191  O5'  DT A   8       0.849  79.435  36.189  1.00  0.00    -0.287 OA
ATOM    192  C5'  DT A   8      -0.509  79.167  35.838  1.00  0.00     0.216 C 
ATOM    193  C4'  DT A   8      -0.906  77.789  36.314  1.00  0.00     0.180 C 
ATOM    194  O4'  DT A   8      -0.337  76.801  35.412  1.00  0.00    -0.353 OA
ATOM    195  C1'  DT A   8       0.173  75.709  36.155  1.00  0.00     0.264 C 
ATOM    196  N1   DT A   8       1.634  75.680  35.988  1.00  0.00    -0.280 N 
ATOM    197  C6   DT A   8       2.366  76.845  35.927  1.00  0.00     0.104 A 
ATOM    198  C2   DT A   8       2.251  74.446  35.896  1.00  0.00     0.331 A 
ATOM    199  O2   DT A   8       1.639  73.393  35.945  1.00  0.00    -0.246 OA
ATOM    200  N3   DT A   8       3.612  74.488  35.746  1.00  0.00    -0.275 N 
ATOM    201  H3   DT A   8       4.082  73.600  35.659  1.00  0.00     0.173 HD
ATOM    202  C4   DT A   8       4.406  75.613  35.683  1.00  0.00     0.250 A 
ATOM    203  O4   DT A   8       5.624  75.488  35.573  1.00  0.00    -0.268 OA
ATOM    204  C5   DT A   8       3.695  76.848  35.783  1.00  0.00     0.092 A 
ATOM    205  C2'  DT A   8      -0.274  75.889  37.605  1.00  0.00     0.199 C 
ATOM    206  O2'  DT A   8      -1.535  75.268  37.771  1.00  0.00    -0.388 OA
ATOM    207 'HO2  DT A   8      -2.009  75.762  38.441  1.00  0.00     0.210 HD
ATOM    208  C3'  DT A   8      -0.388  77.407  37.695  1.00  0.00     0.198 C 
ATOM    209  O3'  DT A   8      -1.290  77.829  38.715  1.00  0.00    -0.279 OA
ATOM    210  P    DA A   9      -0.753  78.071  40.212  1.00  0.00     0.408 P 
ATOM    211  OP1  DA A   9      -1.291  79.379  40.664  1.00  0.00    -0.624 OA
ATOM    212  OP2  DA A   9       0.712  77.828  40.247  1.00  0.00    -0.624 OA
ATOM    213  O5'  DA A   9      -1.464  76.924  41.061  1.00  0.00    -0.287 OA
ATOM    214  C5'  DA A   9      -2.887  76.846  41.146  1.00  0.00     0.216 C 
ATOM    215  C4'  DA A   9      -3.302  75.515  41.731  1.00  0.00     0.180 C 
ATOM    216  O4'  DA A   9      -2.990  74.465  40.774  1.00  0.00    -0.353 OA
ATOM    217  C1'  DA A   9      -2.417  73.358  41.447  1.00  0.00     0.262 C 
ATOM    218  N9   DA A   9      -1.008  73.264  41.063  1.00  0.00    -0.294 N 
ATOM    219  C4   DA A   9      -0.203  72.156  41.175  1.00  0.00     0.167 A 
ATOM    220  N3   DA A   9      -0.541  70.945  41.647  1.00  0.00    -0.222 NA
ATOM    221  C2   DA A   9       0.501  70.117  41.609  1.00  0.00     0.237 A 
ATOM    222  N1   DA A   9       1.750  70.346  41.183  1.00  0.00    -0.222 NA
ATOM    223  C6   DA A   9       2.057  71.573  40.713  1.00  0.00     0.155 A 
ATOM    224  N6   DA A   9       3.299  71.801  40.288  1.00  0.00    -0.382 N 
ATOM    225  H61  DA A   9       3.549  72.712  39.933  1.00  0.00     0.157 HD
ATOM    226  H62  DA A   9       3.993  71.066  40.322  1.00  0.00     0.157 HD
ATOM    227  C5   DA A   9       1.038  72.544  40.701  1.00  0.00     0.149 A 
ATOM    228  N7   DA A   9       1.016  73.870  40.294  1.00  0.00    -0.236 NA
ATOM    229  C8   DA A   9      -0.217  74.250  40.527  1.00  0.00     0.214 A 
ATOM    230  C2'  DA A   9      -2.630  73.586  42.942  1.00  0.00     0.199 C 
ATOM    231  O2'  DA A   9      -3.910  73.098  43.301  1.00  0.00    -0.388 OA
ATOM    232 'HO2  DA A   9      -4.136  73.498  44.141  1.00  0.00     0.210 HD
ATOM    233  C3'  DA A   9      -2.578  75.107  43.009  1.00  0.00     0.198 C 
ATOM    234  O3'  DA A   9      -3.220  75.626  44.171  1.00  0.00    -0.279 OA
ATOM    235  P    DG A  10      -2.357  75.908  45.500  1.00  0.00     0.408 P 
ATOM    236  OP1  DG A  10      -3.252  76.588  46.473  1.00  0.00    -0.624 OA
ATOM    237  OP2  DG A  10      -1.080  76.555  45.104  1.00  0.00    -0.624 OA
ATOM    238  O5'  DG A  10      -2.029  74.454  46.064  1.00  0.00    -0.287 OA
ATOM    239  C5'  DG A  10      -3.040  73.664  46.684  1.00  0.00     0.216 C 
ATOM    240  C4'  DG A  10      -2.474  72.332  47.117  1.00  0.00     0.180 C 
ATOM    241  O4'  DG A  10      -1.856  71.680  45.981  1.00  0.00    -0.353 OA
ATOM    242  C1'  DG A  10      -0.809  70.843  46.434  1.00  0.00     0.262 C 
ATOM    243  N9   DG A  10       0.394  71.152  45.668  1.00  0.00    -0.293 N 
ATOM    244  C4   DG A  10       1.484  70.334  45.503  1.00  0.00     0.187 A 
ATOM    245  N3   DG A  10       1.628  69.096  46.020  1.00  0.00    -0.044 NA
ATOM    246  C2   DG A  10       2.785  68.556  45.690  1.00  0.00     0.703 A 
ATOM    247  N2   DG A  10       3.087  67.331  46.122  1.00  0.00    -0.233 N 
ATOM    248  H21  DG A  10       2.421  66.834  46.697  1.00  0.00     0.174 HD
ATOM    249  H22  DG A  10       3.970  66.903  45.879  1.00  0.00     0.174 HD
ATOM    250  N1   DG A  10       3.729  69.177  44.912  1.00  0.00    -0.153 N 
ATOM    251  H1   DG A  10       4.582  68.672  44.720  1.00  0.00     0.187 HD
ATOM    252  C6   DG A  10       3.603  70.448  44.367  1.00  0.00     0.292 A 
ATOM    253  O6   DG A  10       4.518  70.915  43.676  1.00  0.00    -0.265 OA
ATOM    254  C5   DG A  10       2.362  71.046  44.714  1.00  0.00     0.173 A 
ATOM    255  N7   DG A  10       1.836  72.289  44.389  1.00  0.00    -0.234 NA
ATOM    256  C8   DG A  10       0.669  72.306  44.975  1.00  0.00     0.214 A 
ATOM    257  C2'  DG A  10      -0.645  71.057  47.942  1.00  0.00     0.199 C 
ATOM    258  O2'  DG A  10      -1.315  70.011  48.621  1.00  0.00    -0.388 OA
ATOM    259 'HO2  DG A  10      -0.857  69.886  49.453  1.00  0.00     0.210 HD
ATOM    260  C3'  DG A  10      -1.356  72.392  48.146  1.00  0.00     0.198 C 
ATOM    261  O3'  DG A  10      -1.874  72.539  49.467  1.00  0.00    -0.279 OA
ATOM    262  P    DC A  11      -0.875  72.839  50.691  1.00  0.00     0.408 P 
ATOM    263  OP1  DC A  11      -1.671  72.756  51.942  1.00  0.00    -0.624 OA
ATOM    264  OP2  DC A  11      -0.115  74.078  50.387  1.00  0.00    -0.624 OA
ATOM    265  O5'  DC A  11       0.138  71.610  50.674  1.00  0.00    -0.287 OA
ATOM    266  C5'  DC A  11       1.483  71.759  51.129  1.00  0.00     0.216 C 
ATOM    267  C4'  DC A  11       2.228  70.454  50.979  1.00  0.00     0.180 C 
ATOM    268  O4'  DC A  11       2.227  70.070  49.576  1.00  0.00    -0.353 OA
ATOM    269  C1'  DC A  11       3.503  69.572  49.214  1.00  0.00     0.264 C 
ATOM    270  N1   DC A  11       4.118  70.515  48.264  1.00  0.00    -0.278 N 
ATOM    271  C6   DC A  11       3.481  71.673  47.912  1.00  0.00     0.102 A 
ATOM    272  C2   DC A  11       5.371  70.207  47.725  1.00  0.00     0.352 A 
ATOM    273  O2   DC A  11       5.927  69.150  48.057  1.00  0.00    -0.244 OA
ATOM    274  N3   DC A  11       5.947  71.069  46.857  1.00  0.00    -0.177 NA
ATOM    275  C4   DC A  11       5.318  72.195  46.521  1.00  0.00     0.128 A 
ATOM    276  N4   DC A  11       5.925  73.011  45.662  1.00  0.00    -0.384 N 
ATOM    277  H41  DC A  11       5.485  73.876  45.381  1.00  0.00     0.157 HD
ATOM    278  H42  DC A  11       6.830  72.759  45.290  1.00  0.00     0.157 HD
ATOM    279  C5   DC A  11       4.039  72.535  47.051  1.00  0.00     0.067 A 
ATOM    280  C2'  DC A  11       4.298  69.395  50.507  1.00  0.00     0.199 C 
ATOM    281  O2'  DC A  11       4.013  68.116  51.042  1.00  0.00    -0.388 OA
ATOM    282 'HO2  DC A  11       3.701  68.254  51.937  1.00  0.00     0.210 HD
ATOM    283  C3'  DC A  11       3.699  70.499  51.368  1.00  0.00     0.198 C 
ATOM    284  O3'  DC A  11       3.879  70.265  52.763  1.00  0.00    -0.279 OA
ATOM    285  P    DT A  12       5.262  70.679  53.473  1.00  0.00     0.408 P 
ATOM    286  OP1  DT A  12       5.072  70.526  54.937  1.00  0.00    -0.624 OA
ATOM    287  OP2  DT A  12       5.710  71.984  52.923  1.00  0.00    -0.624 OA
ATOM    288  O5'  DT A  12       6.292  69.564  52.988  1.00  0.00    -0.287 OA
ATOM    289  C5'  DT A  12       6.119  68.194  53.346  1.00  0.00     0.216 C 
ATOM    290  C4'  DT A  12       7.386  67.421  53.071  1.00  0.00     0.180 C 
ATOM    291  O4'  DT A  12       7.655  67.458  51.643  1.00  0.00    -0.353 OA
ATOM    292  C1'  DT A  12       9.040  67.651  51.419  1.00  0.00     0.264 C 
ATOM    293  N1   DT A  12       9.227  68.957  50.768  1.00  0.00    -0.280 N 
ATOM    294  C6   DT A  12       8.286  69.956  50.881  1.00  0.00     0.104 A 
ATOM    295  C2   DT A  12      10.385  69.149  50.037  1.00  0.00     0.331 A 
ATOM    296  O2   DT A  12      11.239  68.291  49.913  1.00  0.00    -0.246 OA
ATOM    297  N3   DT A  12      10.506  70.385  49.455  1.00  0.00    -0.275 N 
ATOM    298  H3   DT A  12      11.348  70.543  48.922  1.00  0.00     0.173 HD
ATOM    299  C4   DT A  12       9.609  71.425  49.525  1.00  0.00     0.250 A 
ATOM    300  O4   DT A  12       9.861  72.481  48.946  1.00  0.00    -0.268 OA
ATOM    301  C5   DT A  12       8.438  71.150  50.298  1.00  0.00     0.092 A 
ATOM    302  C2'  DT A  12       9.744  67.531  52.770  1.00  0.00     0.199 C 
ATOM    303  O2'  DT A  12      10.079  66.174  52.989  1.00  0.00    -0.388 OA
ATOM    304 'HO2  DT A  12       9.877  65.984  53.905  1.00  0.00     0.210 HD
ATOM    305  C3'  DT A  12       8.643  67.987  53.719  1.00  0.00     0.198 C 
ATOM    306  O3'  DT A  12       8.822  67.483  55.040  1.00  0.00    -0.279 OA
ATOM    307  P    DC A  13       9.522  68.403  56.158  1.00  0.00     0.408 P 
ATOM    308  OP1  DC A  13       9.538  67.630  57.426  1.00  0.00    -0.624 OA
ATOM    309  OP2  DC A  13       8.887  69.745  56.125  1.00  0.00    -0.624 OA
ATOM    310  O5'  DC A  13      11.024  68.554  55.647  1.00  0.00    -0.287 OA
ATOM    311  C5'  DC A  13      11.909  67.434  55.622  1.00  0.00     0.216 C 
ATOM    312  C4'  DC A  13      13.298  67.877  55.225  1.00  0.00     0.180 C 
ATOM    313  O4'  DC A  13      13.290  68.259  53.822  1.00  0.00    -0.353 OA
ATOM    314  C1'  DC A  13      14.089  69.414  53.634  1.00  0.00     0.264 C 
ATOM    315  N1   DC A  13      13.218  70.520  53.206  1.00  0.00    -0.278 N 
ATOM    316  C6   DC A  13      11.967  70.672  53.737  1.00  0.00     0.102 A 
ATOM    317  C2   DC A  13      13.689  71.419  52.245  1.00  0.00     0.352 A 
ATOM    318  O2   DC A  13      14.827  71.258  51.780  1.00  0.00    -0.244 OA
ATOM    319  N3   DC A  13      12.895  72.439  51.848  1.00  0.00    -0.177 NA
ATOM    320  C4   DC A  13      11.677  72.578  52.374  1.00  0.00     0.128 A 
ATOM    321  N4   DC A  13      10.932  73.599  51.954  1.00  0.00    -0.384 N 
ATOM    322  H41  DC A  13      10.005  73.742  52.327  1.00  0.00     0.157 HD
ATOM    323  H42  DC A  13      11.303  74.228  51.256  1.00  0.00     0.157 HD
ATOM    324  C5   DC A  13      11.171  71.678  53.355  1.00  0.00     0.067 A 
ATOM    325  C2'  DC A  13      14.816  69.682  54.951  1.00  0.00     0.199 C 
ATOM    326  O2'  DC A  13      16.034  68.959  54.953  1.00  0.00    -0.388 OA
ATOM    327 'HO2  DC A  13      16.666  69.471  55.459  1.00  0.00     0.210 HD
ATOM    328  C3'  DC A  13      13.826  69.105  55.955  1.00  0.00     0.198 C 
ATOM    329  O3'  DC A  13      14.438  68.757  57.193  1.00  0.00    -0.279 OA
ATOM    330  P    DA A  14      14.786  69.907  58.262  1.00  0.00     0.408 P 
ATOM    331  OP1  DA A  14      15.191  69.234  59.523  1.00  0.00    -0.624 OA
ATOM    332  OP2  DA A  14      13.670  70.887  58.280  1.00  0.00    -0.624 OA
ATOM    333  O5'  DA A  14      16.069  70.627  57.648  1.00  0.00    -0.287 OA
ATOM    334  C5'  DA A  14      17.362  70.032  57.743  1.00  0.00     0.216 C 
ATOM    335  C4'  DA A  14      18.418  71.004  57.270  1.00  0.00     0.180 C 
ATOM    336  O4'  DA A  14      18.174  71.315  55.869  1.00  0.00    -0.353 OA
ATOM    337  C1'  DA A  14      18.382  72.697  55.644  1.00  0.00     0.262 C 
ATOM    338  N9   DA A  14      17.097  73.307  55.302  1.00  0.00    -0.294 N 
ATOM    339  C4   DA A  14      16.888  74.299  54.376  1.00  0.00     0.167 A 
ATOM    340  N3   DA A  14      17.810  74.903  53.605  1.00  0.00    -0.222 NA
ATOM    341  C2   DA A  14      17.241  75.820  52.826  1.00  0.00     0.237 A 
ATOM    342  N1   DA A  14      15.954  76.175  52.736  1.00  0.00    -0.222 NA
ATOM    343  C6   DA A  14      15.054  75.549  53.523  1.00  0.00     0.155 A 
ATOM    344  N6   DA A  14      13.774  75.906  53.432  1.00  0.00    -0.382 N 
ATOM    345  H61  DA A  14      13.084  75.452  54.013  1.00  0.00     0.157 HD
ATOM    346  H62  DA A  14      13.507  76.621  52.771  1.00  0.00     0.157 HD
ATOM    347  C5   DA A  14      15.530  74.556  54.397  1.00  0.00     0.149 A 
ATOM    348  N7   DA A  14      14.891  73.739  55.319  1.00  0.00    -0.236 NA
ATOM    349  C8   DA A  14      15.862  73.020  55.828  1.00  0.00     0.214 A 
ATOM    350  C2'  DA A  14      19.015  73.273  56.910  1.00  0.00     0.199 C 
ATOM    351  O2'  DA A  14      20.420  73.120  56.828  1.00  0.00    -0.388 OA
ATOM    352 'HO2  DA A  14      20.701  72.709  57.645  1.00  0.00     0.210 HD
ATOM    353  C3'  DA A  14      18.423  72.355  57.972  1.00  0.00     0.198 C 
ATOM    354  O3'  DA A  14      19.207  72.329  59.162  1.00  0.00    -0.279 OA
ATOM    355  P    DG A  15      18.883  73.359  60.356  1.00  0.00     0.408 P 
ATOM    356  OP1  DG A  15      20.003  73.275  61.329  1.00  0.00    -0.624 OA
ATOM    357  OP2  DG A  15      17.493  73.115  60.816  1.00  0.00    -0.624 OA
ATOM    358  O5'  DG A  15      18.934  74.790  59.657  1.00  0.00    -0.287 OA
ATOM    359  C5'  DG A  15      20.171  75.350  59.216  1.00  0.00     0.216 C 
ATOM    360  C4'  DG A  15      19.922  76.633  58.459  1.00  0.00     0.180 C 
ATOM    361  O4'  DG A  15      19.101  76.340  57.296  1.00  0.00    -0.353 OA
ATOM    362  C1'  DG A  15      18.138  77.362  57.118  1.00  0.00     0.262 C 
ATOM    363  N9   DG A  15      16.811  76.780  57.293  1.00  0.00    -0.293 N 
ATOM    364  C4   DG A  15      15.648  77.194  56.687  1.00  0.00     0.187 A 
ATOM    365  N3   DG A  15      15.529  78.219  55.816  1.00  0.00    -0.044 NA
ATOM    366  C2   DG A  15      14.283  78.376  55.408  1.00  0.00     0.703 A 
ATOM    367  N2   DG A  15      13.989  79.346  54.538  1.00  0.00    -0.233 N 
ATOM    368  H21  DG A  15      14.722  79.951  54.201  1.00  0.00     0.174 HD
ATOM    369  H22  DG A  15      13.038  79.478  54.222  1.00  0.00     0.174 HD
ATOM    370  N1   DG A  15      13.235  77.594  55.820  1.00  0.00    -0.153 N 
ATOM    371  H1   DG A  15      12.321  77.801  55.450  1.00  0.00     0.187 HD
ATOM    372  C6   DG A  15      13.332  76.533  56.713  1.00  0.00     0.292 A 
ATOM    373  O6   DG A  15      12.321  75.890  57.013  1.00  0.00    -0.265 OA
ATOM    374  C5   DG A  15      14.667  76.351  57.162  1.00  0.00     0.173 A 
ATOM    375  N7   DG A  15      15.200  75.422  58.046  1.00  0.00    -0.234 NA
ATOM    376  C8   DG A  15      16.471  75.715  58.092  1.00  0.00     0.214 A 
ATOM    377  C2'  DG A  15      18.454  78.477  58.115  1.00  0.00     0.199 C 
ATOM    378  O2'  DG A  15      19.339  79.397  57.504  1.00  0.00    -0.388 OA
ATOM    379 'HO2  DG A  15      20.140  79.391  58.029  1.00  0.00     0.210 HD
ATOM    380  C3'  DG A  15      19.148  77.698  59.226  1.00  0.00     0.198 C 
ATOM    381  O3'  DG A  15      20.022  78.518  59.998  1.00  0.00    -0.279 OA
ATOM    382  P    DT A  16      19.759  78.707  61.573  1.00  0.00     0.408 P 
ATOM    383  OP1  DT A  16      20.917  79.456  62.125  1.00  0.00    -0.624 OA
ATOM    384  OP2  DT A  16      19.393  77.391  62.155  1.00  0.00    -0.624 OA
ATOM    385  O5'  DT A  16      18.482  79.659  61.639  1.00  0.00    -0.287 OA
ATOM    386  C5'  DT A  16      18.444  80.889  60.917  1.00  0.00     0.216 C 
ATOM    387  C4'  DT A  16      17.222  81.686  61.310  1.00  0.00     0.180 C 
ATOM    388  O4'  DT A  16      17.548  83.098  61.239  1.00  0.00    -0.353 OA
ATOM    389  C1'  DT A  16      16.447  83.822  60.723  1.00  0.00     0.264 C 
ATOM    390  N1   DT A  16      16.870  84.477  59.477  1.00  0.00    -0.280 N 
ATOM    391  C6   DT A  16      17.804  83.899  58.645  1.00  0.00     0.104 A 
ATOM    392  C2   DT A  16      16.302  85.698  59.167  1.00  0.00     0.331 A 
ATOM    393  O2   DT A  16      15.471  86.240  59.873  1.00  0.00    -0.246 OA
ATOM    394  N3   DT A  16      16.742  86.263  57.998  1.00  0.00    -0.275 N 
ATOM    395  H3   DT A  16      16.335  87.151  57.747  1.00  0.00     0.173 HD
ATOM    396  C4   DT A  16      17.673  85.747  57.126  1.00  0.00     0.250 A 
ATOM    397  O4   DT A  16      17.988  86.392  56.127  1.00  0.00    -0.268 OA
ATOM    398  C5   DT A  16      18.211  84.481  57.513  1.00  0.00     0.092 A 
ATOM    399  C2'  DT A  16      15.282  82.846  60.547  1.00  0.00     0.199 C 
ATOM    400  O2'  DT A  16      14.496  82.865  61.725  1.00  0.00    -0.388 OA
ATOM    401 'HO2  DT A  16      14.602  82.009  62.140  1.00  0.00     0.210 HD
ATOM    402  C3'  DT A  16      16.014  81.515  60.399  1.00  0.00     0.198 C 
ATOM    403  O3'  DT A  16      15.211  80.412  60.811  1.00  0.00    -0.279 OA
ATOM    404  P    DC A  17      14.334  79.610  59.727  1.00  0.00     0.408 P 
ATOM    405  OP1  DC A  17      12.971  79.450  60.294  1.00  0.00    -0.624 OA
ATOM    406  OP2  DC A  17      15.099  78.408  59.314  1.00  0.00    -0.624 OA
ATOM    407  O5'  DC A  17      14.252  80.601  58.481  1.00  0.00    -0.287 OA
ATOM    408  C5'  DC A  17      12.999  80.933  57.878  1.00  0.00     0.216 C 
ATOM    409  C4'  DC A  17      13.039  82.342  57.323  1.00  0.00     0.180 C 
ATOM    410  O4'  DC A  17      14.358  82.910  57.566  1.00  0.00    -0.353 OA
ATOM    411  C1'  DC A  17      14.838  83.530  56.388  1.00  0.00     0.264 C 
ATOM    412  N1   DC A  17      15.933  82.709  55.846  1.00  0.00    -0.278 N 
ATOM    413  C6   DC A  17      16.141  81.433  56.291  1.00  0.00     0.102 A 
ATOM    414  C2   DC A  17      16.764  83.256  54.864  1.00  0.00     0.352 A 
ATOM    415  O2   DC A  17      16.553  84.414  54.475  1.00  0.00    -0.244 OA
ATOM    416  N3   DC A  17      17.774  82.511  54.361  1.00  0.00    -0.177 NA
ATOM    417  C4   DC A  17      17.967  81.268  54.803  1.00  0.00     0.128 A 
ATOM    418  N4   DC A  17      18.974  80.571  54.279  1.00  0.00    -0.384 N 
ATOM    419  H41  DC A  17      19.149  79.625  54.593  1.00  0.00     0.157 HD
ATOM    420  H42  DC A  17      19.562  80.992  53.574  1.00  0.00     0.157 HD
ATOM    421  C5   DC A  17      17.136  80.684  55.802  1.00  0.00     0.067 A 
ATOM    422  C2'  DC A  17      13.646  83.679  55.446  1.00  0.00     0.199 C 
ATOM    423  O2'  DC A  17      12.958  84.873  55.768  1.00  0.00    -0.388 OA
ATOM    424 'HO2  DC A  17      12.084  84.616  56.065  1.00  0.00     0.210 HD
ATOM    425  C3'  DC A  17      12.826  82.449  55.818  1.00  0.00     0.198 C 
ATOM    426  O3'  DC A  17      11.446  82.600  55.498  1.00  0.00    -0.279 OA
ATOM    427  P    DG A  18      10.683  81.447  54.674  1.00  0.00     0.408 P 
ATOM    428  OP1  DG A  18       9.225  81.681  54.827  1.00  0.00    -0.624 OA
ATOM    429  OP2  DG A  18      11.259  80.131  55.057  1.00  0.00    -0.624 OA
ATOM    430  O5'  DG A  18      11.071  81.735  53.156  1.00  0.00    -0.287 OA
ATOM    431  C5'  DG A  18      10.794  80.781  52.132  1.00  0.00     0.216 C 
ATOM    432  C4'  DG A  18      10.987  81.409  50.772  1.00  0.00     0.180 C 
ATOM    433  O4'  DG A  18      12.352  81.164  50.341  1.00  0.00    -0.353 OA
ATOM    434  C1'  DG A  18      12.362  80.235  49.274  1.00  0.00     0.262 C 
ATOM    435  N9   DG A  18      13.352  79.208  49.582  1.00  0.00    -0.293 N 
ATOM    436  C4   DG A  18      14.549  79.003  48.937  1.00  0.00     0.187 A 
ATOM    437  N3   DG A  18      15.019  79.718  47.894  1.00  0.00    -0.044 NA
ATOM    438  C2   DG A  18      16.198  79.283  47.490  1.00  0.00     0.703 A 
ATOM    439  N2   DG A  18      16.807  79.880  46.462  1.00  0.00    -0.233 N 
ATOM    440  H21  DG A  18      16.358  80.661  46.006  1.00  0.00     0.174 HD
ATOM    441  H22  DG A  18      17.699  79.544  46.131  1.00  0.00     0.174 HD
ATOM    442  N1   DG A  18      16.866  78.231  48.062  1.00  0.00    -0.153 N 
ATOM    443  H1   DG A  18      17.762  77.973  47.677  1.00  0.00     0.187 HD
ATOM    444  C6   DG A  18      16.404  77.481  49.137  1.00  0.00     0.292 A 
ATOM    445  O6   DG A  18      17.090  76.552  49.577  1.00  0.00    -0.265 OA
ATOM    446  C5   DG A  18      15.135  77.935  49.583  1.00  0.00     0.173 A 
ATOM    447  N7   DG A  18      14.324  77.476  50.612  1.00  0.00    -0.234 NA
ATOM    448  C8   DG A  18      13.281  78.259  50.573  1.00  0.00     0.214 A 
ATOM    449  C2'  DG A  18      10.942  79.693  49.111  1.00  0.00     0.199 C 
ATOM    450  O2'  DG A  18      10.684  79.499  47.733  1.00  0.00    -0.388 OA
ATOM    451 'HO2  DG A  18      10.400  80.349  47.393  1.00  0.00     0.210 HD
ATOM    452  C3'  DG A  18      10.109  80.845  49.663  1.00  0.00     0.198 C 
ATOM    453  O3'  DG A  18       9.824  81.830  48.673  1.00  0.00    -0.279 OA
ATOM    454  P    DA A  19       8.537  82.781  48.840  1.00  0.00     0.408 P 
ATOM    455  OP1  DA A  19       8.881  83.829  49.834  1.00  0.00    -0.624 OA
ATOM    456  OP2  DA A  19       7.350  81.917  49.065  1.00  0.00    -0.624 OA
ATOM    457  O5'  DA A  19       8.389  83.480  47.415  1.00  0.00    -0.287 OA
ATOM    458  C5'  DA A  19       7.177  83.382  46.669  1.00  0.00     0.216 C 
ATOM    459  C4'  DA A  19       7.150  84.425  45.575  1.00  0.00     0.180 C 
ATOM    460  O4'  DA A  19       6.999  85.739  46.185  1.00  0.00    -0.353 OA
ATOM    461  C1'  DA A  19       7.863  86.662  45.548  1.00  0.00     0.262 C 
ATOM    462  N9   DA A  19       8.915  87.034  46.493  1.00  0.00    -0.294 N 
ATOM    463  C4   DA A  19       9.684  88.172  46.455  1.00  0.00     0.167 A 
ATOM    464  N3   DA A  19       9.625  89.169  45.555  1.00  0.00    -0.222 NA
ATOM    465  C2   DA A  19      10.526  90.108  45.833  1.00  0.00     0.237 A 
ATOM    466  N1   DA A  19      11.413  90.160  46.835  1.00  0.00    -0.222 NA
ATOM    467  C6   DA A  19      11.447  89.144  47.722  1.00  0.00     0.155 A 
ATOM    468  N6   DA A  19      12.333  89.196  48.716  1.00  0.00    -0.382 N 
ATOM    469  H61  DA A  19      12.375  88.443  49.388  1.00  0.00     0.157 HD
ATOM    470  H62  DA A  19      12.955  89.988  48.792  1.00  0.00     0.157 HD
ATOM    471  C5   DA A  19      10.540  88.085  47.538  1.00  0.00     0.149 A 
ATOM    472  N7   DA A  19      10.315  86.915  48.249  1.00  0.00    -0.236 NA
ATOM    473  C8   DA A  19       9.345  86.330  47.591  1.00  0.00     0.214 A 
ATOM    474  C2'  DA A  19       8.385  85.984  44.284  1.00  0.00     0.199 C 
ATOM    475  O2'  DA A  19       7.446  86.180  43.242  1.00  0.00    -0.388 OA
ATOM    476 'HO2  DA A  19       7.243  85.314  42.887  1.00  0.00     0.210 HD
ATOM    477  C3'  DA A  19       8.416  84.530  44.733  1.00  0.00     0.198 C 
ATOM    478  O3'  DA A  19       8.400  83.621  43.635  1.00  0.00    -0.279 OA
ATOM    479  P    DT A  20       9.780  83.217  42.914  1.00  0.00     0.408 P 
ATOM    480  OP1  DT A  20       9.428  82.496  41.664  1.00  0.00    -0.624 OA
ATOM    481  OP2  DT A  20      10.660  82.561  43.915  1.00  0.00    -0.624 OA
ATOM    482  O5'  DT A  20      10.432  84.616  42.515  1.00  0.00    -0.287 OA
ATOM    483  C5'  DT A  20       9.936  85.371  41.410  1.00  0.00     0.216 C 
ATOM    484  C4'  DT A  20      10.654  86.697  41.319  1.00  0.00     0.180 C 
ATOM    485  O4'  DT A  20      10.509  87.407  42.579  1.00  0.00    -0.353 OA
ATOM    486  C1'  DT A  20      11.704  88.116  42.867  1.00  0.00     0.264 C 
ATOM    487  N1   DT A  20      12.264  87.598  44.124  1.00  0.00    -0.280 N 
ATOM    488  C6   DT A  20      11.984  86.321  44.559  1.00  0.00     0.104 A 
ATOM    489  C2   DT A  20      13.085  88.436  44.855  1.00  0.00     0.331 A 
ATOM    490  O2   DT A  20      13.356  89.570  44.506  1.00  0.00    -0.246 OA
ATOM    491  N3   DT A  20      13.580  87.895  46.014  1.00  0.00    -0.275 N 
ATOM    492  H3   DT A  20      14.183  88.489  46.560  1.00  0.00     0.173 HD
ATOM    493  C4   DT A  20      13.343  86.634  46.507  1.00  0.00     0.250 A 
ATOM    494  O4   DT A  20      13.864  86.294  47.569  1.00  0.00    -0.268 OA
ATOM    495  C5   DT A  20      12.483  85.830  45.697  1.00  0.00     0.092 A 
ATOM    496  C2'  DT A  20      12.638  87.948  41.670  1.00  0.00     0.199 C 
ATOM    497  O2'  DT A  20      12.400  89.003  40.757  1.00  0.00    -0.388 OA
ATOM    498 'HO2  DT A  20      12.143  88.595  39.930  1.00  0.00     0.210 HD
ATOM    499  C3'  DT A  20      12.159  86.616  41.110  1.00  0.00     0.198 C 
ATOM    500  O3'  DT A  20      12.496  86.451  39.735  1.00  0.00    -0.279 OA
ATOM    501  P    DC A  21      13.818  85.631  39.331  1.00  0.00     0.408 P 
ATOM    502  OP1  DC A  21      14.972  86.556  39.460  1.00  0.00    -0.624 OA
ATOM    503  OP2  DC A  21      13.560  84.958  38.031  1.00  0.00    -0.624 OA
ATOM    504  O5'  DC A  21      13.939  84.511  40.459  1.00  0.00    -0.287 OA
ATOM    505  C5'  DC A  21      14.732  83.343  40.254  1.00  0.00     0.216 C 
ATOM    506  C4'  DC A  21      14.962  82.627  41.566  1.00  0.00     0.180 C 
ATOM    507  O4'  DC A  21      15.912  83.403  42.354  1.00  0.00    -0.353 OA
ATOM    508  C1'  DC A  21      15.381  83.627  43.640  1.00  0.00     0.264 C 
ATOM    509  N1   DC A  21      15.917  84.900  44.153  1.00  0.00    -0.278 N 
ATOM    510  C6   DC A  21      16.780  84.911  45.213  1.00  0.00     0.102 A 
ATOM    511  C2   DC A  21      15.534  86.101  43.542  1.00  0.00     0.352 A 
ATOM    512  O2   DC A  21      14.747  86.066  42.586  1.00  0.00    -0.244 OA
ATOM    513  N3   DC A  21      16.031  87.267  44.011  1.00  0.00    -0.177 NA
ATOM    514  C4   DC A  21      16.874  87.266  45.043  1.00  0.00     0.128 A 
ATOM    515  N4   DC A  21      17.338  88.441  45.469  1.00  0.00    -0.384 N 
ATOM    516  H41  DC A  21      17.979  88.482  46.248  1.00  0.00     0.157 HD
ATOM    517  H42  DC A  21      17.048  89.287  45.001  1.00  0.00     0.157 HD
ATOM    518  C5   DC A  21      17.279  86.061  45.686  1.00  0.00     0.067 A 
ATOM    519  C2'  DC A  21      13.866  83.582  43.473  1.00  0.00     0.199 C 
ATOM    520  O2'  DC A  21      13.283  83.228  44.714  1.00  0.00    -0.388 OA
ATOM    521 'HO2  DC A  21      12.709  82.479  44.549  1.00  0.00     0.210 HD
ATOM    522  C3'  DC A  21      13.725  82.458  42.450  1.00  0.00     0.198 C 
ATOM    523  O3'  DC A  21      13.700  81.173  43.071  1.00  0.00    -0.279 OA
ATOM    524  P    DC A  22      13.103  79.907  42.277  1.00  0.00     0.408 P 
ATOM    525  OP1  DC A  22      13.047  80.252  40.834  1.00  0.00    -0.624 OA
ATOM    526  OP2  DC A  22      11.867  79.468  42.974  1.00  0.00    -0.624 OA
ATOM    527  O5'  DC A  22      14.207  78.774  42.473  1.00  0.00    -0.287 OA
ATOM    528  C5'  DC A  22      15.520  78.923  41.932  1.00  0.00     0.216 C 
ATOM    529  C4'  DC A  22      16.486  78.002  42.639  1.00  0.00     0.180 C 
ATOM    530  O4'  DC A  22      16.551  78.386  44.041  1.00  0.00    -0.353 OA
ATOM    531  C1'  DC A  22      16.475  77.234  44.859  1.00  0.00     0.264 C 
ATOM    532  N1   DC A  22      15.167  77.224  45.533  1.00  0.00    -0.278 N 
ATOM    533  C6   DC A  22      14.246  78.207  45.297  1.00  0.00     0.102 A 
ATOM    534  C2   DC A  22      14.877  76.188  46.426  1.00  0.00     0.352 A 
ATOM    535  O2   DC A  22      15.729  75.313  46.626  1.00  0.00    -0.244 OA
ATOM    536  N3   DC A  22      13.677  76.168  47.048  1.00  0.00    -0.177 NA
ATOM    537  C4   DC A  22      12.788  77.132  46.810  1.00  0.00     0.128 A 
ATOM    538  N4   DC A  22      11.620  77.068  47.448  1.00  0.00    -0.384 N 
ATOM    539  H41  DC A  22      10.924  77.785  47.291  1.00  0.00     0.157 HD
ATOM    540  H42  DC A  22      11.438  76.307  48.085  1.00  0.00     0.157 HD
ATOM    541  C5   DC A  22      13.056  78.202  45.908  1.00  0.00     0.067 A 
ATOM    542  C2'  DC A  22      16.713  76.031  43.950  1.00  0.00     0.199 C 
ATOM    543  O2'  DC A  22      18.108  75.833  43.817  1.00  0.00    -0.388 OA
ATOM    544 'HO2  DC A  22      18.296  75.820  42.878  1.00  0.00     0.210 HD
ATOM    545  C3'  DC A  22      16.102  76.526  42.645  1.00  0.00     0.198 C 
ATOM    546  O3'  DC A  22      16.626  75.842  41.510  1.00  0.00    -0.279 OA
ATOM    547  P    DC A  23      15.951  74.465  41.023  1.00  0.00     0.408 P 
ATOM    548  OP1  DC A  23      16.717  73.993  39.840  1.00  0.00    -0.624 OA
ATOM    549  OP2  DC A  23      14.486  74.677  40.909  1.00  0.00    -0.624 OA
ATOM    550  O5'  DC A  23      16.216  73.455  42.225  1.00  0.00    -0.287 OA
ATOM    551  C5'  DC A  23      17.545  73.130  42.633  1.00  0.00     0.216 C 
ATOM    552  C4'  DC A  23      17.530  71.951  43.581  1.00  0.00     0.180 C 
ATOM    553  O4'  DC A  23      17.193  72.415  44.916  1.00  0.00    -0.353 OA
ATOM    554  C1'  DC A  23      16.413  71.433  45.580  1.00  0.00     0.264 C 
ATOM    555  N1   DC A  23      15.106  72.022  45.915  1.00  0.00    -0.278 N 
ATOM    556  C6   DC A  23      14.545  72.981  45.119  1.00  0.00     0.102 A 
ATOM    557  C2   DC A  23      14.440  71.580  47.062  1.00  0.00     0.352 A 
ATOM    558  O2   DC A  23      14.973  70.714  47.769  1.00  0.00    -0.244 OA
ATOM    559  N3   DC A  23      13.233  72.108  47.371  1.00  0.00    -0.177 NA
ATOM    560  C4   DC A  23      12.694  73.040  46.585  1.00  0.00     0.128 A 
ATOM    561  N4   DC A  23      11.501  73.526  46.926  1.00  0.00    -0.384 N 
ATOM    562  H41  DC A  23      11.063  74.231  46.353  1.00  0.00     0.157 HD
ATOM    563  H42  DC A  23      11.039  73.182  47.756  1.00  0.00     0.157 HD
ATOM    564  C5   DC A  23      13.351  73.514  45.413  1.00  0.00     0.067 A 
ATOM    565  C2'  DC A  23      16.314  70.222  44.652  1.00  0.00     0.199 C 
ATOM    566  O2'  DC A  23      17.388  69.344  44.937  1.00  0.00    -0.388 OA
ATOM    567 'HO2  DC A  23      17.908  69.282  44.135  1.00  0.00     0.210 HD
ATOM    568  C3'  DC A  23      16.487  70.881  43.289  1.00  0.00     0.198 C 
ATOM    569  O3'  DC A  23      16.932  69.967  42.290  1.00  0.00    -0.279 OA
ATOM    570  P    DG A  24      15.857  69.246  41.333  1.00  0.00     0.408 P 
ATOM    571  OP1  DG A  24      16.610  68.344  40.425  1.00  0.00    -0.624 OA
ATOM    572  OP2  DG A  24      14.966  70.287  40.760  1.00  0.00    -0.624 OA
ATOM    573  O5'  DG A  24      15.001  68.342  42.329  1.00  0.00    -0.287 OA
ATOM    574  C5'  DG A  24      15.604  67.261  43.039  1.00  0.00     0.216 C 
ATOM    575  C4'  DG A  24      14.706  66.811  44.168  1.00  0.00     0.180 C 
ATOM    576  O4'  DG A  24      14.294  67.963  44.944  1.00  0.00    -0.353 OA
ATOM    577  C1'  DG A  24      13.049  67.686  45.559  1.00  0.00     0.262 C 
ATOM    578  N9   DG A  24      12.152  68.813  45.318  1.00  0.00    -0.293 N 
ATOM    579  C4   DG A  24      10.877  68.952  45.808  1.00  0.00     0.187 A 
ATOM    580  N3   DG A  24      10.231  68.068  46.596  1.00  0.00    -0.044 NA
ATOM    581  C2   DG A  24       9.016  68.480  46.907  1.00  0.00     0.703 A 
ATOM    582  N2   DG A  24       8.239  67.719  47.684  1.00  0.00    -0.233 N 
ATOM    583  H21  DG A  24       8.598  66.838  48.022  1.00  0.00     0.174 HD
ATOM    584  H22  DG A  24       7.306  68.016  47.933  1.00  0.00     0.174 HD
ATOM    585  N1   DG A  24       8.475  69.664  46.479  1.00  0.00    -0.153 N 
ATOM    586  H1   DG A  24       7.537  69.884  46.776  1.00  0.00     0.187 HD
ATOM    587  C6   DG A  24       9.118  70.590  45.665  1.00  0.00     0.292 A 
ATOM    588  O6   DG A  24       8.534  71.627  45.334  1.00  0.00    -0.265 OA
ATOM    589  C5   DG A  24      10.427  70.162  45.322  1.00  0.00     0.173 A 
ATOM    590  N7   DG A  24      11.400  70.771  44.540  1.00  0.00    -0.234 NA
ATOM    591  C8   DG A  24      12.402  69.936  44.567  1.00  0.00     0.214 A 
ATOM    592  C2'  DG A  24      12.522  66.361  45.000  1.00  0.00     0.199 C 
ATOM    593  O2'  DG A  24      12.774  65.342  45.948  1.00  0.00    -0.388 OA
ATOM    594 'HO2  DG A  24      13.277  64.665  45.495  1.00  0.00     0.210 HD
ATOM    595  C3'  DG A  24      13.387  66.178  43.754  1.00  0.00     0.198 C 
ATOM    596  O3'  DG A  24      13.551  64.804  43.406  1.00  0.00    -0.279 OA
ATOM    597  P    DC A  25      12.513  64.105  42.394  1.00  0.00     0.408 P 
ATOM    598  OP1  DC A  25      12.890  62.672  42.290  1.00  0.00    -0.624 OA
ATOM    599  OP2  DC A  25      12.432  64.934  41.165  1.00  0.00    -0.624 OA
ATOM    600  O5'  DC A  25      11.114  64.196  43.152  1.00  0.00    -0.287 OA
ATOM    601  C5'  DC A  25      10.893  63.487  44.370  1.00  0.00     0.216 C 
ATOM    602  C4'  DC A  25       9.412  63.370  44.648  1.00  0.00     0.180 C 
ATOM    603  O4'  DC A  25       8.963  64.569  45.330  1.00  0.00    -0.353 OA
ATOM    604  C1'  DC A  25       7.624  64.850  44.963  1.00  0.00     0.264 C 
ATOM    605  N1   DC A  25       7.568  66.223  44.433  1.00  0.00    -0.278 N 
ATOM    606  C6   DC A  25       8.623  66.752  43.744  1.00  0.00     0.102 A 
ATOM    607  C2   DC A  25       6.412  66.979  44.643  1.00  0.00     0.352 A 
ATOM    608  O2   DC A  25       5.472  66.477  45.273  1.00  0.00    -0.244 OA
ATOM    609  N3   DC A  25       6.348  68.238  44.156  1.00  0.00    -0.177 NA
ATOM    610  C4   DC A  25       7.381  68.746  43.484  1.00  0.00     0.128 A 
ATOM    611  N4   DC A  25       7.269  69.990  43.021  1.00  0.00    -0.384 N 
ATOM    612  H41  DC A  25       8.028  70.412  42.506  1.00  0.00     0.157 HD
ATOM    613  H42  DC A  25       6.419  70.510  43.187  1.00  0.00     0.157 HD
ATOM    614  C5   DC A  25       8.573  67.999  43.255  1.00  0.00     0.067 A 
ATOM    615  C2'  DC A  25       7.176  63.787  43.957  1.00  0.00     0.199 C 
ATOM    616  O2'  DC A  25       6.488  62.768  44.658  1.00  0.00    -0.388 OA
ATOM    617 'HO2  DC A  25       6.548  61.979  44.119  1.00  0.00     0.210 HD
ATOM    618  C3'  DC A  25       8.512  63.283  43.425  1.00  0.00     0.198 C 
ATOM    619  O3'  DC A  25       8.429  61.947  42.931  1.00  0.00    -0.279 OA
ATOM    620  P    DT A  26       8.551  61.664  41.352  1.00  0.00     0.408 P 
ATOM    621  OP1  DT A  26       9.018  60.263  41.201  1.00  0.00    -0.624 OA
ATOM    622  OP2  DT A  26       9.322  62.765  40.719  1.00  0.00    -0.624 OA
ATOM    623  O5'  DT A  26       7.046  61.731  40.828  1.00  0.00    -0.287 OA
ATOM    624  C5'  DT A  26       6.444  62.971  40.458  1.00  0.00     0.216 C 
ATOM    625  C4'  DT A  26       5.049  63.062  41.030  1.00  0.00     0.180 C 
ATOM    626  O4'  DT A  26       5.042  64.065  42.083  1.00  0.00    -0.353 OA
ATOM    627  C1'  DT A  26       3.874  64.860  41.983  1.00  0.00     0.264 C 
ATOM    628  N1   DT A  26       4.274  66.225  41.610  1.00  0.00    -0.280 N 
ATOM    629  C6   DT A  26       5.552  66.502  41.182  1.00  0.00     0.104 A 
ATOM    630  C2   DT A  26       3.323  67.225  41.704  1.00  0.00     0.331 A 
ATOM    631  O2   DT A  26       2.183  67.023  42.079  1.00  0.00    -0.246 OA
ATOM    632  N3   DT A  26       3.756  68.473  41.338  1.00  0.00    -0.275 N 
ATOM    633  H3   DT A  26       3.080  69.220  41.400  1.00  0.00     0.173 HD
ATOM    634  C4   DT A  26       5.014  68.818  40.902  1.00  0.00     0.250 A 
ATOM    635  O4   DT A  26       5.254  69.991  40.615  1.00  0.00    -0.268 OA
ATOM    636  C5   DT A  26       5.939  67.732  40.834  1.00  0.00     0.092 A 
ATOM    637  C2'  DT A  26       2.953  64.183  40.968  1.00  0.00     0.199 C 
ATOM    638  O2'  DT A  26       2.159  63.224  41.641  1.00  0.00    -0.388 OA
ATOM    639 'HO2  DT A  26       2.335  62.379  41.225  1.00  0.00     0.210 HD
ATOM    640  C3'  DT A  26       3.968  63.511  40.053  1.00  0.00     0.198 C 
ATOM    641  O3'  DT A  26       3.412  62.403  39.348  1.00  0.00    -0.279 OA
ATOM    642  P    DT A  27       3.427  62.385  37.739  1.00  0.00     0.408 P 
ATOM    643  OP1  DT A  27       3.374  60.965  37.311  1.00  0.00    -0.624 OA
ATOM    644  OP2  DT A  27       4.535  63.253  37.263  1.00  0.00    -0.624 OA
ATOM    645  O5'  DT A  27       2.049  63.074  37.335  1.00  0.00    -0.287 OA
ATOM    646  C5'  DT A  27       0.800  62.507  37.728  1.00  0.00     0.216 C 
ATOM    647  C4'  DT A  27      -0.316  63.502  37.508  1.00  0.00     0.180 C 
ATOM    648  O4'  DT A  27      -0.242  64.527  38.538  1.00  0.00    -0.353 OA
ATOM    649  C1'  DT A  27      -0.517  65.796  37.970  1.00  0.00     0.264 C 
ATOM    650  N1   DT A  27       0.704  66.614  38.046  1.00  0.00    -0.280 N 
ATOM    651  C6   DT A  27       1.954  66.036  38.033  1.00  0.00     0.104 A 
ATOM    652  C2   DT A  27       0.554  67.986  38.125  1.00  0.00     0.331 A 
ATOM    653  O2   DT A  27      -0.532  68.536  38.146  1.00  0.00    -0.246 OA
ATOM    654  N3   DT A  27       1.727  68.694  38.180  1.00  0.00    -0.275 N 
ATOM    655  H3   DT A  27       1.640  69.698  38.235  1.00  0.00     0.173 HD
ATOM    656  C4   DT A  27       3.005  68.185  38.164  1.00  0.00     0.250 A 
ATOM    657  O4   DT A  27       3.963  68.956  38.197  1.00  0.00    -0.268 OA
ATOM    658  C5   DT A  27       3.076  66.759  38.089  1.00  0.00     0.092 A 
ATOM    659  C2'  DT A  27      -1.002  65.555  36.542  1.00  0.00     0.199 C 
ATOM    660  O2'  DT A  27      -2.402  65.344  36.568  1.00  0.00    -0.388 OA
ATOM    661 'HO2  DT A  27      -2.569  64.538  36.077  1.00  0.00     0.210 HD
ATOM    662  C3'  DT A  27      -0.256  64.274  36.197  1.00  0.00     0.198 C 
ATOM    663  O3'  DT A  27      -0.868  63.556  35.130  1.00  0.00    -0.279 OA
ATOM    664  P    DC A  28      -0.443  63.871  33.611  1.00  0.00     0.408 P 
ATOM    665  OP1  DC A  28      -1.205  62.948  32.733  1.00  0.00    -0.624 OA
ATOM    666  OP2  DC A  28       1.041  63.896  33.537  1.00  0.00    -0.624 OA
ATOM    667  O5'  DC A  28      -0.976  65.351  33.358  1.00  0.00    -0.287 OA
ATOM    668  C5'  DC A  28      -2.369  65.648  33.423  1.00  0.00     0.216 C 
ATOM    669  C4'  DC A  28      -2.595  67.135  33.266  1.00  0.00     0.180 C 
ATOM    670  O4'  DC A  28      -1.799  67.855  34.243  1.00  0.00    -0.353 OA
ATOM    671  C1'  DC A  28      -1.443  69.123  33.715  1.00  0.00     0.264 C 
ATOM    672  N1   DC A  28       0.022  69.261  33.760  1.00  0.00    -0.278 N 
ATOM    673  C6   DC A  28       0.823  68.193  34.056  1.00  0.00     0.102 A 
ATOM    674  C2   DC A  28       0.585  70.512  33.490  1.00  0.00     0.352 A 
ATOM    675  O2   DC A  28      -0.163  71.465  33.226  1.00  0.00    -0.244 OA
ATOM    676  N3   DC A  28       1.927  70.654  33.521  1.00  0.00    -0.177 NA
ATOM    677  C4   DC A  28       2.701  69.607  33.808  1.00  0.00     0.128 A 
ATOM    678  N4   DC A  28       4.020  69.796  33.823  1.00  0.00    -0.384 N 
ATOM    679  H41  DC A  28       4.642  69.029  34.034  1.00  0.00     0.157 HD
ATOM    680  H42  DC A  28       4.393  70.714  33.622  1.00  0.00     0.157 HD
ATOM    681  C5   DC A  28       2.157  68.319  34.090  1.00  0.00     0.067 A 
ATOM    682  C2'  DC A  28      -2.012  69.212  32.297  1.00  0.00     0.199 C 
ATOM    683  O2'  DC A  28      -3.273  69.850  32.355  1.00  0.00    -0.388 OA
ATOM    684 'HO2  DC A  28      -3.883  69.305  31.857  1.00  0.00     0.210 HD
ATOM    685  C3'  DC A  28      -2.153  67.737  31.943  1.00  0.00     0.198 C 
ATOM    686  O3'  DC A  28      -3.107  67.511  30.907  1.00  0.00    -0.279 OA
ATOM    687  P    DC A  29      -2.649  67.583  29.367  1.00  0.00     0.408 P 
ATOM    688  OP1  DC A  29      -3.709  66.928  28.560  1.00  0.00    -0.624 OA
ATOM    689  OP2  DC A  29      -1.246  67.103  29.263  1.00  0.00    -0.624 OA
ATOM    690  O5'  DC A  29      -2.661  69.142  29.032  1.00  0.00    -0.287 OA
ATOM    691  C5'  DC A  29      -3.873  69.892  29.084  1.00  0.00     0.216 C 
ATOM    692  C4'  DC A  29      -3.604  71.345  28.766  1.00  0.00     0.180 C 
ATOM    693  O4'  DC A  29      -2.780  71.921  29.818  1.00  0.00    -0.353 OA
ATOM    694  C1'  DC A  29      -1.866  72.848  29.252  1.00  0.00     0.264 C 
ATOM    695  N1   DC A  29      -0.498  72.354  29.477  1.00  0.00    -0.278 N 
ATOM    696  C6   DC A  29      -0.259  71.029  29.713  1.00  0.00     0.102 A 
ATOM    697  C2   DC A  29       0.560  73.264  29.438  1.00  0.00     0.352 A 
ATOM    698  O2   DC A  29       0.316  74.460  29.226  1.00  0.00    -0.244 OA
ATOM    699  N3   DC A  29       1.822  72.821  29.631  1.00  0.00    -0.177 NA
ATOM    700  C4   DC A  29       2.045  71.527  29.861  1.00  0.00     0.128 A 
ATOM    701  N4   DC A  29       3.306  71.137  30.047  1.00  0.00    -0.384 N 
ATOM    702  H41  DC A  29       3.521  70.168  30.225  1.00  0.00     0.157 HD
ATOM    703  H42  DC A  29       4.048  71.823  30.010  1.00  0.00     0.157 HD
ATOM    704  C5   DC A  29       0.985  70.575  29.910  1.00  0.00     0.067 A 
ATOM    705  C2'  DC A  29      -2.221  72.985  27.773  1.00  0.00     0.199 C 
ATOM    706  O2'  DC A  29      -3.196  74.003  27.630  1.00  0.00    -0.388 OA
ATOM    707 'HO2  DC A  29      -3.838  73.684  26.994  1.00  0.00     0.210 HD
ATOM    708  C3'  DC A  29      -2.812  71.611  27.494  1.00  0.00     0.198 C 
ATOM    709  O3'  DC A  29      -3.638  71.598  26.333  1.00  0.00    -0.279 OA
ATOM    710  P    DC A  30      -2.985  71.305  24.892  1.00  0.00     0.408 P 
ATOM    711  OP1  DC A  30      -4.079  71.354  23.890  1.00  0.00    -0.624 OA
ATOM    712  OP2  DC A  30      -2.141  70.086  25.000  1.00  0.00    -0.624 OA
ATOM    713  O5'  DC A  30      -2.023  72.551  24.644  1.00  0.00    -0.287 OA
ATOM    714  C5'  DC A  30      -2.555  73.852  24.404  1.00  0.00     0.216 C 
ATOM    715  C4'  DC A  30      -1.438  74.835  24.142  1.00  0.00     0.180 C 
ATOM    716  O4'  DC A  30      -0.625  74.973  25.339  1.00  0.00    -0.353 OA
ATOM    717  C1'  DC A  30       0.726  75.200  24.973  1.00  0.00     0.264 C 
ATOM    718  N1   DC A  30       1.553  74.113  25.525  1.00  0.00    -0.278 N 
ATOM    719  C6   DC A  30       1.001  72.906  25.848  1.00  0.00     0.102 A 
ATOM    720  C2   DC A  30       2.919  74.335  25.708  1.00  0.00     0.352 A 
ATOM    721  O2   DC A  30       3.396  75.440  25.411  1.00  0.00    -0.244 OA
ATOM    722  N3   DC A  30       3.690  73.343  26.205  1.00  0.00    -0.177 NA
ATOM    723  C4   DC A  30       3.143  72.168  26.517  1.00  0.00     0.128 A 
ATOM    724  N4   DC A  30       3.943  71.223  27.008  1.00  0.00    -0.384 N 
ATOM    725  H41  DC A  30       3.574  70.318  27.260  1.00  0.00     0.157 HD
ATOM    726  H42  DC A  30       4.927  71.422  27.128  1.00  0.00     0.157 HD
ATOM    727  C5   DC A  30       1.752  71.913  26.343  1.00  0.00     0.067 A 
ATOM    728  C2'  DC A  30       0.778  75.277  23.446  1.00  0.00     0.199 C 
ATOM    729  O2'  DC A  30       0.603  76.626  23.055  1.00  0.00    -0.388 OA
ATOM    730 'HO2  DC A  30       0.777  76.669  22.113  1.00  0.00     0.210 HD
ATOM    731  C3'  DC A  30      -0.431  74.428  23.075  1.00  0.00     0.198 C 
ATOM    732  O3'  DC A  30      -0.904  74.694  21.758  1.00  0.00    -0.279 OA
ATOM    733  P    DC A  31      -0.321  73.854  20.517  1.00  0.00     0.408 P 
ATOM    734  OP1  DC A  31      -1.079  74.260  19.306  1.00  0.00    -0.624 OA
ATOM    735  OP2  DC A  31      -0.270  72.420  20.904  1.00  0.00    -0.624 OA
ATOM    736  O5'  DC A  31       1.178  74.377  20.366  1.00  0.00    -0.287 OA
ATOM    737  C5'  DC A  31       1.457  75.631  19.745  1.00  0.00     0.216 C 
ATOM    738  C4'  DC A  31       2.912  75.997  19.933  1.00  0.00     0.180 C 
ATOM    739  O4'  DC A  31       3.291  75.796  21.321  1.00  0.00    -0.353 OA
ATOM    740  C1'  DC A  31       4.662  75.431  21.386  1.00  0.00     0.264 C 
ATOM    741  N1   DC A  31       4.773  74.141  22.088  1.00  0.00    -0.278 N 
ATOM    742  C6   DC A  31       3.677  73.345  22.273  1.00  0.00     0.102 A 
ATOM    743  C2   DC A  31       6.025  73.739  22.562  1.00  0.00     0.352 A 
ATOM    744  O2   DC A  31       7.003  74.478  22.380  1.00  0.00    -0.244 OA
ATOM    745  N3   DC A  31       6.140  72.557  23.204  1.00  0.00    -0.177 NA
ATOM    746  C4   DC A  31       5.066  71.788  23.383  1.00  0.00     0.128 A 
ATOM    747  N4   DC A  31       5.231  70.632  24.026  1.00  0.00    -0.384 N 
ATOM    748  H41  DC A  31       4.445  70.019  24.183  1.00  0.00     0.157 HD
ATOM    749  H42  DC A  31       6.151  70.377  24.358  1.00  0.00     0.157 HD
ATOM    750  C5   DC A  31       3.776  72.172  22.913  1.00  0.00     0.067 A 
ATOM    751  C2'  DC A  31       5.196  75.390  19.954  1.00  0.00     0.199 C 
ATOM    752  O2'  DC A  31       5.757  76.651  19.642  1.00  0.00    -0.388 OA
ATOM    753 'HO2  DC A  31       5.509  76.849  18.738  1.00  0.00     0.210 HD
ATOM    754  C3'  DC A  31       3.914  75.147  19.168  1.00  0.00     0.198 C 
ATOM    755  O3'  DC A  31       4.024  75.546  17.804  1.00  0.00    -0.279 OA
ATOM    756  P    DC A  32       4.515  74.486  16.698  1.00  0.00     0.408 P 
ATOM    757  OP1  DC A  32       4.343  75.121  15.367  1.00  0.00    -0.624 OA
ATOM    758  OP2  DC A  32       3.867  73.180  16.978  1.00  0.00    -0.624 OA
ATOM    759  O5'  DC A  32       6.076  74.333  16.978  1.00  0.00    -0.287 OA
ATOM    760  C5'  DC A  32       6.989  75.374  16.634  1.00  0.00     0.216 C 
ATOM    761  C4'  DC A  32       8.391  75.002  17.058  1.00  0.00     0.180 C 
ATOM    762  O4'  DC A  32       8.411  74.756  18.490  1.00  0.00    -0.353 OA
ATOM    763  C1'  DC A  32       9.375  73.756  18.783  1.00  0.00     0.264 C 
ATOM    764  N1   DC A  32       8.701  72.641  19.469  1.00  0.00    -0.278 N 
ATOM    765  C6   DC A  32       7.344  72.491  19.402  1.00  0.00     0.102 A 
ATOM    766  C2   DC A  32       9.475  71.730  20.192  1.00  0.00     0.352 A 
ATOM    767  O2   DC A  32      10.703  71.885  20.235  1.00  0.00    -0.244 OA
ATOM    768  N3   DC A  32       8.868  70.703  20.825  1.00  0.00    -0.177 NA
ATOM    769  C4   DC A  32       7.544  70.569  20.761  1.00  0.00     0.128 A 
ATOM    770  N4   DC A  32       6.991  69.543  21.407  1.00  0.00    -0.384 N 
ATOM    771  H41  DC A  32       5.991  69.403  21.385  1.00  0.00     0.157 HD
ATOM    772  H42  DC A  32       7.583  68.908  21.924  1.00  0.00     0.157 HD
ATOM    773  C5   DC A  32       6.728  71.481  20.031  1.00  0.00     0.067 A 
ATOM    774  C2'  DC A  32      10.033  73.347  17.465  1.00  0.00     0.199 C 
ATOM    775  O2'  DC A  32      11.194  74.133  17.274  1.00  0.00    -0.388 OA
ATOM    776 'HO2  DC A  32      11.129  74.515  16.398  1.00  0.00     0.210 HD
ATOM    777  C3'  DC A  32       8.945  73.716  16.464  1.00  0.00     0.198 C 
ATOM    778  O3'  DC A  32       9.460  73.912  15.150  1.00  0.00    -0.279 OA
ATOM    779  P    DC A  33       9.635  72.652  14.165  1.00  0.00     0.408 P 
ATOM    780  OP1  DC A  33      10.052  73.180  12.840  1.00  0.00    -0.624 OA
ATOM    781  OP2  DC A  33       8.420  71.803  14.266  1.00  0.00    -0.624 OA
ATOM    782  O5'  DC A  33      10.858  71.840  14.786  1.00  0.00    -0.287 OA
ATOM    783  C5'  DC A  33      12.181  72.377  14.773  1.00  0.00     0.216 C 
ATOM    784  C4'  DC A  33      13.174  71.332  15.230  1.00  0.00     0.180 C 
ATOM    785  O4'  DC A  33      13.027  71.136  16.663  1.00  0.00    -0.353 OA
ATOM    786  C1'  DC A  33      13.155  69.759  16.975  1.00  0.00     0.264 C 
ATOM    787  N1   DC A  33      11.866  69.278  17.498  1.00  0.00    -0.278 N 
ATOM    788  C6   DC A  33      10.694  69.878  17.130  1.00  0.00     0.102 A 
ATOM    789  C2   DC A  33      11.857  68.198  18.383  1.00  0.00     0.352 A 
ATOM    790  O2   DC A  33      12.932  67.665  18.695  1.00  0.00    -0.244 OA
ATOM    791  N3   DC A  33      10.679  67.757  18.875  1.00  0.00    -0.177 NA
ATOM    792  C4   DC A  33       9.541  68.354  18.516  1.00  0.00     0.128 A 
ATOM    793  N4   DC A  33       8.405  67.890  19.035  1.00  0.00    -0.384 N 
ATOM    794  H41  DC A  33       7.520  68.312  18.795  1.00  0.00     0.157 HD
ATOM    795  H42  DC A  33       8.440  67.112  19.680  1.00  0.00     0.157 HD
ATOM    796  C5   DC A  33       9.520  69.455  17.612  1.00  0.00     0.067 A 
ATOM    797  C2'  DC A  33      13.605  69.046  15.700  1.00  0.00     0.199 C 
ATOM    798  O2'  DC A  33      15.019  69.071  15.640  1.00  0.00    -0.388 OA
ATOM    799 'HO2  DC A  33      15.259  69.711  14.967  1.00  0.00     0.210 HD
ATOM    800  C3'  DC A  33      12.992  69.943  14.632  1.00  0.00     0.198 C 
ATOM    801  O3'  DC A  33      13.649  69.820  13.374  1.00  0.00    -0.279 OA
ATOM    802  P    DC A  34      13.133  68.735  12.304  1.00  0.00     0.408 P 
ATOM    803  OP1  DC A  34      13.975  68.871  11.089  1.00  0.00    -0.624 OA
ATOM    804  OP2  DC A  34      11.657  68.851  12.190  1.00  0.00    -0.624 OA
ATOM    805  O5'  DC A  34      13.467  67.332  12.983  1.00  0.00    -0.287 OA
ATOM    806  C5'  DC A  34      14.815  66.945  13.244  1.00  0.00     0.216 C 
ATOM    807  C4'  DC A  34      14.851  65.576  13.882  1.00  0.00     0.180 C 
ATOM    808  O4'  DC A  34      14.353  65.670  15.240  1.00  0.00    -0.353 OA
ATOM    809  C1'  DC A  34      13.724  64.453  15.596  1.00  0.00     0.264 C 
ATOM    810  N1   DC A  34      12.367  64.755  16.080  1.00  0.00    -0.278 N 
ATOM    811  C6   DC A  34      11.692  65.857  15.634  1.00  0.00     0.102 A 
ATOM    812  C2   DC A  34      11.775  63.891  17.002  1.00  0.00     0.352 A 
ATOM    813  O2   DC A  34      12.411  62.901  17.394  1.00  0.00    -0.244 OA
ATOM    814  N3   DC A  34      10.528  64.153  17.447  1.00  0.00    -0.177 NA
ATOM    815  C4   DC A  34       9.876  65.231  17.009  1.00  0.00     0.128 A 
ATOM    816  N4   DC A  34       8.649  65.447  17.478  1.00  0.00    -0.384 N 
ATOM    817  H41  DC A  34       8.118  66.249  17.175  1.00  0.00     0.157 HD
ATOM    818  H42  DC A  34       8.258  64.798  18.149  1.00  0.00     0.157 HD
ATOM    819  C5   DC A  34      10.456  66.133  16.071  1.00  0.00     0.067 A 
ATOM    820  C2'  DC A  34      13.744  63.531  14.374  1.00  0.00     0.198 C 
ATOM    821  O2'  DC A  34      14.841  62.646  14.497  1.00  0.00    -0.388 OA
ATOM    822 'HO2  DC A  34      15.181  62.496  13.613  1.00  0.00     0.210 HD
ATOM    823  C3'  DC A  34      13.959  64.526  13.238  1.00  0.00     0.182 C 
ATOM    824  O3'  DC A  34      14.569  63.922  12.091  1.00  0.00    -0.390 OA
ATOM    825 'HO3  DC A  34      14.862  64.637  11.519  1.00  0.00     0.210 HD
ENDROOT
TORSDOF 264
ENDMDL
MODEL 2
REMARK VINA RESULT:     -14.4     16.217     32.517
REMARK  0 active torsions:
REMARK  status: ('A' for Active; 'I' for Inactive)
REMARK       I    between atoms: O5'_2  and  C5'_3 
REMARK       I    between atoms: C5'_3  and  C4'_4 
REMARK       I    between atoms: C1'_6  and  N9_9 
REMARK       I    between atoms: C2_18  and  N2_20 
REMARK       I    between atoms: C2'_7  and  O2'_23 
REMARK       I    between atoms: C3'_8  and  O3'_25 
REMARK       I    between atoms: O3'_25  and  P_26 
REMARK       I    between atoms: P_26  and  O5'_29 
REMARK       I    between atoms: O5'_29  and  C5'_30 
REMARK       I    between atoms: C5'_30  and  C4'_31 
REMARK       I    between atoms: C1'_33  and  N9_36 
REMARK       I    between atoms: C2_45  and  N2_47 
REMARK       I    between atoms: C2'_34  and  O2'_50 
REMARK       I    between atoms: C3'_35  and  O3'_52 
REMARK       I    between atoms: O3'_52  and  P_53 
REMARK       I    between atoms: P_53  and  O5'_56 
REMARK       I    between atoms: O5'_56  and  C5'_57 
REMARK       I    between atoms: C5'_57  and  C4'_58 
REMARK       I    between atoms: C1'_60  and  N9_63 
REMARK       I    between atoms: C2_72  and  N2_74 
REMARK       I    between atoms: C2'_61  and  O2'_77 
REMARK       I    between atoms: C3'_62  and  O3'_79 
REMARK       I    between atoms: O3'_79  and  P_80 
REMARK       I    between atoms: P_80  and  O5'_83 
REMARK       I    between atoms: O5'_83  and  C5'_84 
REMARK       I    between atoms: C5'_84  and  C4'_85 
REMARK       I    between atoms: C1'_87  and  N9_90 
REMARK       I    between atoms: C2_99  and  N2_101 
REMARK       I    between atoms: C2'_88  and  O2'_104 
REMARK       I    between atoms: C3'_89  and  O3'_106 
REMARK       I    between atoms: O3'_106  and  P_107 
REMARK       I    between atoms: P_107  and  O5'_110 
REMARK       I    between atoms: O5'_110  and  C5'_111 
REMARK       I    between atoms: C5'_111  and  C4'_112 
REMARK       I    between atoms: C1'_114  and  N9_117 
REMARK       I    between atoms: C2_121  and  N2_128 
REMARK       I    between atoms: C2'_115  and  O2'_131 
REMARK       I    between atoms: C3'_116  and  O3'_133 
REMARK       I    between atoms: O3'_133  and  P_134 
REMARK       I    between atoms: P_134  and  O5'_137 
REMARK       I    between atoms: O5'_137  and  C5'_138 
REMARK       I    between atoms: C5'_138  and  C4'_139 
REMARK       I    between atoms: C1'_141  and  N9_144 
REMARK       I    between atoms: C2_148  and  N2_155 
REMARK       I    between atoms: C2'_142  and  O2'_158 
REMARK       I    between atoms: C3'_143  and  O3'_160 
REMARK       I    between atoms: O3'_160  and  P_161 
REMARK       I    between atoms: P_161  and  O5'_164 
REMARK       I    between atoms: O5'_164  and  C5'_165 
REMARK       I    between atoms: C5'_165  and  C4'_166 
REMARK       I    between atoms: C1'_168  and  N9_171 
REMARK       I    between atoms: C2_175  and  N2_182 
REMARK       I    between atoms: C2'_169  and  O2'_185 
REMARK       I    between atoms: C3'_170  and  O3'_187 
REMARK       I    between atoms: O3'_187  and  P_188 
REMARK       I    between atoms: P_188  and  O5'_191 
REMARK       I    between atoms: O5'_191  and  C5'_192 
REMARK       I    between atoms: C5'_192  and  C4'_193 
REMARK       I    between atoms: C1'_195  and  N1_198 
REMARK       I    between atoms: C2'_196  and  O2'_207 
REMARK       I    between atoms: C3'_197  and  O3'_209 
REMARK       I    between atoms: O3'_209  and  P_210 
REMARK       I    between atoms: P_210  and  O5'_213 
REMARK       I    between atoms: O5'_213  and  C5'_214 
REMARK       I    between atoms: C5'_214  and  C4'_215 
REMARK       I    between atoms: C1'_217  and  N9_220 
REMARK       I    between atoms: C6_226  and  N6_229 
REMARK       I    between atoms: C2'_218  and  O2'_232 
REMARK       I    between atoms: C3'_219  and  O3'_234 
REMARK       I    between atoms: O3'_234  and  P_235 
REMARK       I    between atoms: P_235  and  O5'_238 
REMARK       I    between atoms: O5'_238  and  C5'_239 
REMARK       I    between atoms: C5'_239  and  C4'_240 
REMARK       I    between atoms: C1'_242  and  N9_245 
REMARK       I    between atoms: C2_252  and  N2_256 
REMARK       I    between atoms: C2'_243  and  O2'_259 
REMARK       I    between atoms: C3'_244  and  O3'_261 
REMARK       I    between atoms: O3'_261  and  P_262 
REMARK       I    between atoms: P_262  and  O5'_265 
REMARK       I    between atoms: O5'_265  and  C5'_266 
REMARK       I    between atoms: C5'_266  and  C4'_267 
REMARK       I    between atoms: C1'_270  and  N1_816 
REMARK       I    between atoms: C4_819  and  N4_823 
REMARK       I    between atoms: C2'_269  and  O2'_814 
REMARK       I    between atoms: C3'_268  and  O3'_272 
REMARK       I    between atoms: O3'_272  and  P_273 
REMARK       I    between atoms: P_273  and  O5'_276 
REMARK       I    between atoms: O5'_276  and  C5'_277 
REMARK       I    between atoms: C5'_277  and  C4'_278 
REMARK       I    between atoms: C1'_280  and  N1_283 
REMARK       I    between atoms: C2'_281  and  O2'_292 
REMARK       I    between atoms: C3'_282  and  O3'_294 
REMARK       I    between atoms: O3'_294  and  P_295 
REMARK       I    between atoms: P_295  and  O5'_298 
REMARK       I    between atoms: O5'_298  and  C5'_299 
REMARK       I    between atoms: C5'_299  and  C4'_300 
REMARK       I    between atoms: C1'_302  and  N1_305 
REMARK       I    between atoms: C4_308  and  N4_312 
REMARK       I    between atoms: C2'_303  and  O2'_315 
REMARK       I    between atoms: C3'_304  and  O3'_317 
REMARK       I    between atoms: O3'_317  and  P_318 
REMARK       I    between atoms: P_318  and  O5'_321 
REMARK       I    between atoms: O5'_321  and  C5'_322 
REMARK       I    between atoms: C5'_322  and  C4'_323 
REMARK       I    between atoms: C1'_325  and  N9_328 
REMARK       I    between atoms: C6_332  and  N6_337 
REMARK       I    between atoms: C2'_326  and  O2'_340 
REMARK       I    between atoms: C3'_327  and  O3'_342 
REMARK       I    between atoms: O3'_342  and  P_343 
REMARK       I    between atoms: P_343  and  O5'_346 
REMARK       I    between atoms: O5'_346  and  C5'_347 
REMARK       I    between atoms: C5'_347  and  C4'_348 
REMARK       I    between atoms: C1'_350  and  N9_353 
REMARK       I    between atoms: C2_357  and  N2_364 
REMARK       I    between atoms: C2'_351  and  O2'_367 
REMARK       I    between atoms: C3'_352  and  O3'_369 
REMARK       I    between atoms: O3'_369  and  P_370 
REMARK       I    between atoms: P_370  and  O5'_373 
REMARK       I    between atoms: O5'_373  and  C5'_374 
REMARK       I    between atoms: C5'_374  and  C4'_375 
REMARK       I    between atoms: C1'_378  and  N1_805 
REMARK       I    between atoms: C2'_377  and  O2'_803 
REMARK       I    between atoms: C3'_376  and  O3'_380 
REMARK       I    between atoms: O3'_380  and  P_381 
REMARK       I    between atoms: P_381  and  O5'_384 
REMARK       I    between atoms: O5'_384  and  C5'_385 
REMARK       I    between atoms: C5'_385  and  C4'_386 
REMARK       I    between atoms: C1'_389  and  N1_793 
REMARK       I    between atoms: C4_797  and  N4_800 
REMARK       I    between atoms: C2'_388  and  O2'_791 
REMARK       I    between atoms: C3'_387  and  O3'_391 
REMARK       I    between atoms: O3'_391  and  P_392 
REMARK       I    between atoms: P_392  and  O5'_395 
REMARK       I    between atoms: O5'_395  and  C5'_396 
REMARK       I    between atoms: C5'_396  and  C4'_397 
REMARK       I    between atoms: C1'_400  and  N9_777 
REMARK       I    between atoms: C2_784  and  N2_788 
REMARK       I    between atoms: C2'_399  and  O2'_775 
REMARK       I    between atoms: C3'_398  and  O3'_402 
REMARK       I    between atoms: O3'_402  and  P_403 
REMARK       I    between atoms: P_403  and  O5'_406 
REMARK       I    between atoms: O5'_406  and  C5'_407 
REMARK       I    between atoms: C5'_407  and  C4'_408 
REMARK       I    between atoms: C1'_410  and  N9_413 
REMARK       I    between atoms: C6_417  and  N6_422 
REMARK       I    between atoms: C2'_411  and  O2'_425 
REMARK       I    between atoms: C3'_412  and  O3'_427 
REMARK       I    between atoms: O3'_427  and  P_428 
REMARK       I    between atoms: P_428  and  O5'_431 
REMARK       I    between atoms: O5'_431  and  C5'_432 
REMARK       I    between atoms: C5'_432  and  C4'_433 
REMARK       I    between atoms: C1'_436  and  N1_766 
REMARK       I    between atoms: C2'_435  and  O2'_764 
REMARK       I    between atoms: C3'_434  and  O3'_438 
REMARK       I    between atoms: O3'_438  and  P_439 
REMARK       I    between atoms: P_439  and  O5'_442 
REMARK       I    between atoms: O5'_442  and  C5'_443 
REMARK       I    between atoms: C5'_443  and  C4'_444 
REMARK       I    between atoms: C1'_447  and  N1_754 
REMARK       I    between atoms: C4_758  and  N4_761 
REMARK       I    between atoms: C2'_446  and  O2'_752 
REMARK       I    between atoms: C3'_445  and  O3'_449 
REMARK       I    between atoms: O3'_449  and  P_450 
REMARK       I    between atoms: P_450  and  O5'_453 
REMARK       I    between atoms: O5'_453  and  C5'_454 
REMARK       I    between atoms: C5'_454  and  C4'_455 
REMARK       I    between atoms: C1'_457  and  N1_460 
REMARK       I    between atoms: C4_463  and  N4_467 
REMARK       I    between atoms: C2'_458  and  O2'_470 
REMARK       I    between atoms: C3'_459  and  O3'_472 
REMARK       I    between atoms: O3'_472  and  P_473 
REMARK       I    between atoms: P_473  and  O5'_476 
REMARK       I    between atoms: O5'_476  and  C5'_477 
REMARK       I    between atoms: C5'_477  and  C4'_478 
REMARK       I    between atoms: C1'_481  and  N1_742 
REMARK       I    between atoms: C4_746  and  N4_749 
REMARK       I    between atoms: C2'_480  and  O2'_740 
REMARK       I    between atoms: C3'_479  and  O3'_483 
REMARK       I    between atoms: O3'_483  and  P_484 
REMARK       I    between atoms: P_484  and  O5'_487 
REMARK       I    between atoms: O5'_487  and  C5'_488 
REMARK       I    between atoms: C5'_488  and  C4'_489 
REMARK       I    between atoms: C1'_491  and  N9_494 
REMARK       I    between atoms: C2_504  and  N2_505 
REMARK       I    between atoms: C2'_492  and  O2'_508 
REMARK       I    between atoms: C3'_493  and  O3'_510 
REMARK       I    between atoms: O3'_510  and  P_511 
REMARK       I    between atoms: P_511  and  O5'_514 
REMARK       I    between atoms: O5'_514  and  C5'_515 
REMARK       I    between atoms: C5'_515  and  C4'_516 
REMARK       I    between atoms: C1'_519  and  N1_730 
REMARK       I    between atoms: C4_734  and  N4_737 
REMARK       I    between atoms: C2'_518  and  O2'_728 
REMARK       I    between atoms: C3'_517  and  O3'_521 
REMARK       I    between atoms: O3'_521  and  P_522 
REMARK       I    between atoms: P_522  and  O5'_525 
REMARK       I    between atoms: O5'_525  and  C5'_526 
REMARK       I    between atoms: C5'_526  and  C4'_527 
REMARK       I    between atoms: C1'_530  and  N1_719 
REMARK       I    between atoms: C2'_529  and  O2'_717 
REMARK       I    between atoms: C3'_528  and  O3'_532 
REMARK       I    between atoms: O3'_532  and  P_533 
REMARK       I    between atoms: P_533  and  O5'_536 
REMARK       I    between atoms: O5'_536  and  C5'_537 
REMARK       I    between atoms: C5'_537  and  C4'_538 
REMARK       I    between atoms: C1'_541  and  N1_708 
REMARK       I    between atoms: C2'_540  and  O2'_706 
REMARK       I    between atoms: C3'_539  and  O3'_543 
REMARK       I    between atoms: O3'_543  and  P_544 
REMARK       I    between atoms: P_544  and  O5'_547 
REMARK       I    between atoms: O5'_547  and  C5'_548 
REMARK       I    between atoms: C5'_548  and  C4'_549 
REMARK       I    between atoms: C1'_552  and  N1_696 
REMARK       I    between atoms: C4_700  and  N4_703 
REMARK       I    between atoms: C2'_551  and  O2'_694 
REMARK       I    between atoms: C3'_550  and  O3'_554 
REMARK       I    between atoms: O3'_554  and  P_555 
REMARK       I    between atoms: P_555  and  O5'_558 
REMARK       I    between atoms: O5'_558  and  C5'_559 
REMARK       I    between atoms: C5'_559  and  C4'_560 
REMARK       I    between atoms: C1'_563  and  N1_684 
REMARK       I    between atoms: C4_687  and  N4_691 
REMARK       I    between atoms: C2'_562  and  O2'_682 
REMARK       I    between atoms: C3'_561  and  O3'_565 
REMARK       I    between atoms: O3'_565  and  P_566 
REMARK       I    between atoms: P_566  and  O5'_569 
REMARK       I    between atoms: O5'_569  and  C5'_570 
REMARK       I    between atoms: C5'_570  and  C4'_571 
REMARK       I    between atoms: C1'_574  and  N1_672 
REMARK       I    between atoms: C4_675  and  N4_679 
REMARK       I    between atoms: C2'_573  and  O2'_670 
REMARK       I    between atoms: C3'_572  and  O3'_576 
REMARK       I    between atoms: O3'_576  and  P_577 
REMARK       I    between atoms: P_577  and  O5'_580 
REMARK       I    between atoms: O5'_580  and  C5'_581 
REMARK       I    between atoms: C5'_581  and  C4'_582 
REMARK       I    between atoms: C1'_584  and  N1_587 
REMARK       I    between atoms: C4_590  and  N4_594 
REMARK       I    between atoms: C2'_585  and  O2'_597 
REMARK       I    between atoms: C3'_586  and  O3'_599 
REMARK       I    between atoms: O3'_599  and  P_600 
REMARK       I    between atoms: P_600  and  O5'_603 
REMARK       I    between atoms: O5'_603  and  C5'_604 
REMARK       I    between atoms: C5'_604  and  C4'_605 
REMARK       I    between atoms: C1'_607  and  N1_610 
REMARK       I    between atoms: C4_613  and  N4_617 
REMARK       I    between atoms: C2'_608  and  O2'_620 
REMARK       I    between atoms: C3'_609  and  O3'_622 
REMARK       I    between atoms: O3'_622  and  P_623 
REMARK       I    between atoms: P_623  and  O5'_626 
REMARK       I    between atoms: O5'_626  and  C5'_627 
REMARK       I    between atoms: C5'_627  and  C4'_628 
REMARK       I    between atoms: C1'_631  and  N1_660 
REMARK       I    between atoms: C4_663  and  N4_667 
REMARK       I    between atoms: C2'_630  and  O2'_658 
REMARK       I    between atoms: C3'_629  and  O3'_633 
REMARK       I    between atoms: O3'_633  and  P_634 
REMARK       I    between atoms: P_634  and  O5'_637 
REMARK       I    between atoms: O5'_637  and  C5'_638 
REMARK       I    between atoms: C5'_638  and  C4'_639 
REMARK       I    between atoms: C1'_641  and  N1_644 
REMARK       I    between atoms: C4_647  and  N4_651 
REMARK       I    between atoms: C2'_642  and  O2'_654 
REMARK       I    between atoms: C3'_643  and  O3'_656 
ROOT
ATOM      1 'HO5  DG A   1       5.877  75.959  59.011  1.00  0.00     0.209 HD
ATOM      2  O5'  DG A   1       6.811  75.777  58.869  1.00  0.00    -0.398 OA
ATOM      3  C5'  DG A   1       7.050  75.922  57.467  1.00  0.00     0.198 C 
ATOM      4  C4'  DG A   1       5.769  75.763  56.678  1.00  0.00     0.180 C 
ATOM      5  O4'  DG A   1       4.681  76.382  57.420  1.00  0.00    -0.353 OA
ATOM      6  C1'  DG A   1       3.843  77.102  56.534  1.00  0.00     0.262 C 
ATOM      7  N9   DG A   1       3.944  78.522  56.859  1.00  0.00    -0.293 N 
ATOM      8  C4   DG A   1       3.200  79.542  56.313  1.00  0.00     0.187 A 
ATOM      9  N3   DG A   1       2.241  79.411  55.373  1.00  0.00    -0.044 NA
ATOM     10  C2   DG A   1       1.704  80.575  55.052  1.00  0.00     0.703 A 
ATOM     11  N2   DG A   1       0.737  80.633  54.131  1.00  0.00    -0.233 N 
ATOM     12  H21  DG A   1       0.420  79.787  53.684  1.00  0.00     0.174 HD
ATOM     13  H22  DG A   1       0.330  81.524  53.889  1.00  0.00     0.174 HD
ATOM     14  N1   DG A   1       2.075  81.770  55.610  1.00  0.00    -0.153 N 
ATOM     15  H1   DG A   1       1.598  82.600  55.294  1.00  0.00     0.187 HD
ATOM     16  C6   DG A   1       3.059  81.931  56.577  1.00  0.00     0.292 A 
ATOM     17  O6   DG A   1       3.317  83.059  57.011  1.00  0.00    -0.265 OA
ATOM     18  C5   DG A   1       3.647  80.690  56.932  1.00  0.00     0.173 A 
ATOM     19  N7   DG A   1       4.652  80.401  57.845  1.00  0.00    -0.234 NA
ATOM     20  C8   DG A   1       4.793  79.106  57.767  1.00  0.00     0.214 A 
ATOM     21  C2'  DG A   1       4.278  76.763  55.110  1.00  0.00     0.199 C 
ATOM     22  O2'  DG A   1       3.564  75.621  54.678  1.00  0.00    -0.388 OA
ATOM     23 'HO2  DG A   1       3.951  75.350  53.847  1.00  0.00     0.210 HD
ATOM     24  C3'  DG A   1       5.755  76.448  55.317  1.00  0.00     0.198 C 
ATOM     25  O3'  DG A   1       6.273  75.597  54.297  1.00  0.00    -0.279 OA
ATOM     26  P    DG A   2       7.100  76.230  53.072  1.00  0.00     0.408 P 
ATOM     27  OP1  DG A   2       6.358  75.909  51.827  1.00  0.00    -0.624 OA
ATOM     28  OP2  DG A   2       8.517  75.810  53.212  1.00  0.00    -0.624 OA
ATOM     29  O5'  DG A   2       7.016  77.802  53.324  1.00  0.00    -0.287 OA
ATOM     30  C5'  DG A   2       7.213  78.735  52.261  1.00  0.00     0.216 C 
ATOM     31  C4'  DG A   2       5.960  78.839  51.418  1.00  0.00     0.180 C 
ATOM     32  O4'  DG A   2       4.812  78.983  52.303  1.00  0.00    -0.353 OA
ATOM     33  C1'  DG A   2       4.046  80.104  51.910  1.00  0.00     0.262 C 
ATOM     34  N9   DG A   2       4.338  81.202  52.826  1.00  0.00    -0.293 N 
ATOM     35  C4   DG A   2       3.834  82.480  52.769  1.00  0.00     0.187 A 
ATOM     36  N3   DG A   2       2.963  82.951  51.850  1.00  0.00    -0.044 NA
ATOM     37  C2   DG A   2       2.668  84.224  52.058  1.00  0.00     0.703 A 
ATOM     38  N2   DG A   2       1.819  84.853  51.240  1.00  0.00    -0.233 N 
ATOM     39  H21  DG A   2       1.406  84.350  50.468  1.00  0.00     0.174 HD
ATOM     40  H22  DG A   2       1.592  85.825  51.392  1.00  0.00     0.174 HD
ATOM     41  N1   DG A   2       3.186  84.974  53.081  1.00  0.00    -0.153 N 
ATOM     42  H1   DG A   2       2.897  85.938  53.148  1.00  0.00     0.187 HD
ATOM     43  C6   DG A   2       4.082  84.513  54.037  1.00  0.00     0.292 A 
ATOM     44  O6   DG A   2       4.486  85.278  54.921  1.00  0.00    -0.265 OA
ATOM     45  C5   DG A   2       4.409  83.148  53.831  1.00  0.00     0.173 A 
ATOM     46  N7   DG A   2       5.253  82.306  54.543  1.00  0.00    -0.234 NA
ATOM     47  C8   DG A   2       5.177  81.167  53.913  1.00  0.00     0.214 A 
ATOM     48  C2'  DG A   2       4.422  80.387  50.460  1.00  0.00     0.199 C 
ATOM     49  O2'  DG A   2       3.701  79.505  49.620  1.00  0.00    -0.388 OA
ATOM     50 'HO2  DG A   2       4.334  78.882  49.262  1.00  0.00     0.210 HD
ATOM     51  C3'  DG A   2       5.907  80.045  50.483  1.00  0.00     0.198 C 
ATOM     52  O3'  DG A   2       6.413  79.726  49.189  1.00  0.00    -0.279 OA
ATOM     53  P    DG A   3       7.399  80.754  48.438  1.00  0.00     0.408 P 
ATOM     54  OP1  DG A   3       7.815  80.118  47.163  1.00  0.00    -0.624 OA
ATOM     55  OP2  DG A   3       8.432  81.205  49.405  1.00  0.00    -0.624 OA
ATOM     56  O5'  DG A   3       6.465  81.997  48.087  1.00  0.00    -0.287 OA
ATOM     57  C5'  DG A   3       5.411  81.878  47.134  1.00  0.00     0.216 C 
ATOM     58  C4'  DG A   3       4.643  83.175  47.039  1.00  0.00     0.180 C 
ATOM     59  O4'  DG A   3       4.043  83.464  48.329  1.00  0.00    -0.353 OA
ATOM     60  C1'  DG A   3       4.062  84.860  48.564  1.00  0.00     0.262 C 
ATOM     61  N9   DG A   3       4.834  85.113  49.776  1.00  0.00    -0.293 N 
ATOM     62  C4   DG A   3       4.988  86.324  50.407  1.00  0.00     0.187 A 
ATOM     63  N3   DG A   3       4.453  87.497  50.010  1.00  0.00    -0.044 NA
ATOM     64  C2   DG A   3       4.778  88.487  50.822  1.00  0.00     0.703 A 
ATOM     65  N2   DG A   3       4.332  89.721  50.571  1.00  0.00    -0.233 N 
ATOM     66  H21  DG A   3       3.751  89.877  49.762  1.00  0.00     0.174 HD
ATOM     67  H22  DG A   3       4.576  90.487  51.182  1.00  0.00     0.174 HD
ATOM     68  N1   DG A   3       5.563  88.340  51.935  1.00  0.00    -0.153 N 
ATOM     69  H1   DG A   3       5.751  89.163  52.486  1.00  0.00     0.187 HD
ATOM     70  C6   DG A   3       6.127  87.144  52.365  1.00  0.00     0.292 A 
ATOM     71  O6   DG A   3       6.819  87.124  53.389  1.00  0.00    -0.265 OA
ATOM     72  C5   DG A   3       5.788  86.068  51.502  1.00  0.00     0.173 A 
ATOM     73  N7   DG A   3       6.132  84.725  51.557  1.00  0.00    -0.234 NA
ATOM     74  C8   DG A   3       5.546  84.200  50.516  1.00  0.00     0.214 A 
ATOM     75  C2'  DG A   3       4.639  85.535  47.317  1.00  0.00     0.199 C 
ATOM     76  O2'  DG A   3       3.573  85.881  46.452  1.00  0.00    -0.388 OA
ATOM     77 'HO2  DG A   3       3.803  85.532  45.590  1.00  0.00     0.210 HD
ATOM     78  C3'  DG A   3       5.477  84.409  46.724  1.00  0.00     0.198 C 
ATOM     79  O3'  DG A   3       5.671  84.561  45.321  1.00  0.00    -0.279 OA
ATOM     80  P    DG A   4       6.907  85.433  44.774  1.00  0.00     0.408 P 
ATOM     81  OP1  DG A   4       6.692  85.637  43.318  1.00  0.00    -0.624 OA
ATOM     82  OP2  DG A   4       8.168  84.806  45.246  1.00  0.00    -0.624 OA
ATOM     83  O5'  DG A   4       6.745  86.839  45.505  1.00  0.00    -0.287 OA
ATOM     84  C5'  DG A   4       5.747  87.772  45.095  1.00  0.00     0.216 C 
ATOM     85  C4'  DG A   4       6.016  89.127  45.708  1.00  0.00     0.180 C 
ATOM     86  O4'  DG A   4       5.891  89.033  47.145  1.00  0.00    -0.353 OA
ATOM     87  C1'  DG A   4       6.675  90.045  47.744  1.00  0.00     0.262 C 
ATOM     88  N9   DG A   4       7.400  89.461  48.869  1.00  0.00    -0.293 N 
ATOM     89  C4   DG A   4       7.871  90.135  49.968  1.00  0.00     0.187 A 
ATOM     90  N3   DG A   4       7.744  91.458  50.198  1.00  0.00    -0.044 NA
ATOM     91  C2   DG A   4       8.300  91.815  51.340  1.00  0.00     0.703 A 
ATOM     92  N2   DG A   4       8.263  93.095  51.718  1.00  0.00    -0.233 N 
ATOM     93  H21  DG A   4       7.808  93.770  51.121  1.00  0.00     0.174 HD
ATOM     94  H22  DG A   4       8.688  93.386  52.588  1.00  0.00     0.174 HD
ATOM     95  N1   DG A   4       8.931  90.946  52.193  1.00  0.00    -0.153 N 
ATOM     96  H1   DG A   4       9.324  91.324  53.040  1.00  0.00     0.187 HD
ATOM     97  C6   DG A   4       9.073  89.580  51.980  1.00  0.00     0.292 A 
ATOM     98  O6   DG A   4       9.660  88.886  52.820  1.00  0.00    -0.265 OA
ATOM     99  C5   DG A   4       8.481  89.179  50.752  1.00  0.00     0.173 A 
ATOM    100  N7   DG A   4       8.395  87.926  50.157  1.00  0.00    -0.234 NA
ATOM    101  C8   DG A   4       7.749  88.143  49.045  1.00  0.00     0.214 A 
ATOM    102  C2'  DG A   4       7.591  90.647  46.672  1.00  0.00     0.199 C 
ATOM    103  O2'  DG A   4       7.103  91.932  46.336  1.00  0.00    -0.388 OA
ATOM    104 'HO2  DG A   4       7.870  92.499  46.225  1.00  0.00     0.210 HD
ATOM    105  C3'  DG A   4       7.423  89.668  45.508  1.00  0.00     0.198 C 
ATOM    106  O3'  DG A   4       7.550  90.302  44.238  1.00  0.00    -0.279 OA
ATOM    107  P    DG A   5       8.994  90.788  43.725  1.00  0.00     0.408 P 
ATOM    108  OP1  DG A   5       8.819  91.304  42.345  1.00  0.00    -0.624 OA
ATOM    109  OP2  DG A   5       9.974  89.701  43.984  1.00  0.00    -0.624 OA
ATOM    110  O5'  DG A   5       9.345  92.023  44.670  1.00  0.00    -0.287 OA
ATOM    111  C5'  DG A   5      10.582  92.083  45.377  1.00  0.00     0.216 C 
ATOM    112  C4'  DG A   5      10.657  93.355  46.186  1.00  0.00     0.180 C 
ATOM    113  O4'  DG A   5       9.885  93.178  47.407  1.00  0.00    -0.353 OA
ATOM    114  C1'  DG A   5      10.605  93.702  48.509  1.00  0.00     0.262 C 
ATOM    115  N9   DG A   5      11.024  92.589  49.356  1.00  0.00    -0.293 N 
ATOM    116  C4   DG A   5      11.684  92.680  50.559  1.00  0.00     0.187 A 
ATOM    117  N3   DG A   5      12.061  93.820  51.174  1.00  0.00    -0.044 NA
ATOM    118  C2   DG A   5      12.679  93.582  52.317  1.00  0.00     0.703 A 
ATOM    119  N2   DG A   5      13.125  94.602  53.054  1.00  0.00    -0.233 N 
ATOM    120  H21  DG A   5      12.983  95.547  52.729  1.00  0.00     0.174 HD
ATOM    121  H22  DG A   5      13.600  94.427  53.929  1.00  0.00     0.174 HD
ATOM    122  N1   DG A   5      12.908  92.328  52.820  1.00  0.00    -0.153 N 
ATOM    123  H1   DG A   5      13.391  92.258  53.703  1.00  0.00     0.187 HD
ATOM    124  C6   DG A   5      12.528  91.140  52.208  1.00  0.00     0.292 A 
ATOM    125  O6   DG A   5      12.782  90.059  52.754  1.00  0.00    -0.265 OA
ATOM    126  C5   DG A   5      11.864  91.377  50.976  1.00  0.00     0.173 A 
ATOM    127  N7   DG A   5      11.328  90.487  50.055  1.00  0.00    -0.234 NA
ATOM    128  C8   DG A   5      10.842  91.250  49.115  1.00  0.00     0.214 A 
ATOM    129  C2'  DG A   5      11.768  94.513  47.939  1.00  0.00     0.199 C 
ATOM    130  O2'  DG A   5      11.318  95.826  47.661  1.00  0.00    -0.388 OA
ATOM    131 'HO2  DG A   5      11.720  96.083  46.830  1.00  0.00     0.210 HD
ATOM    132  C3'  DG A   5      12.052  93.746  46.655  1.00  0.00     0.198 C 
ATOM    133  O3'  DG A   5      12.727  94.539  45.681  1.00  0.00    -0.279 OA
ATOM    134  P    DG A   6      14.305  94.340  45.439  1.00  0.00     0.408 P 
ATOM    135  OP1  DG A   6      14.686  95.197  44.287  1.00  0.00    -0.624 OA
ATOM    136  OP2  DG A   6      14.594  92.885  45.396  1.00  0.00    -0.624 OA
ATOM    137  O5'  DG A   6      14.975  94.946  46.752  1.00  0.00    -0.287 OA
ATOM    138  C5'  DG A   6      14.775  96.312  47.113  1.00  0.00     0.216 C 
ATOM    139  C4'  DG A   6      15.671  96.681  48.274  1.00  0.00     0.180 C 
ATOM    140  O4'  DG A   6      15.053  96.231  49.510  1.00  0.00    -0.353 OA
ATOM    141  C1'  DG A   6      16.056  95.796  50.412  1.00  0.00     0.262 C 
ATOM    142  N9   DG A   6      15.835  94.385  50.708  1.00  0.00    -0.293 N 
ATOM    143  C4   DG A   6      16.395  93.676  51.741  1.00  0.00     0.187 A 
ATOM    144  N3   DG A   6      17.237  94.166  52.674  1.00  0.00    -0.044 NA
ATOM    145  C2   DG A   6      17.615  93.239  53.533  1.00  0.00     0.703 A 
ATOM    146  N2   DG A   6      18.453  93.557  54.523  1.00  0.00    -0.233 N 
ATOM    147  H21  DG A   6      18.790  94.505  54.604  1.00  0.00     0.174 HD
ATOM    148  H22  DG A   6      18.749  92.853  55.185  1.00  0.00     0.174 HD
ATOM    149  N1   DG A   6      17.200  91.934  53.488  1.00  0.00    -0.153 N 
ATOM    150  H1   DG A   6      17.552  91.308  54.194  1.00  0.00     0.187 HD
ATOM    151  C6   DG A   6      16.332  91.405  52.539  1.00  0.00     0.292 A 
ATOM    152  O6   DG A   6      16.019  90.210  52.592  1.00  0.00    -0.265 OA
ATOM    153  C5   DG A   6      15.918  92.389  51.605  1.00  0.00     0.173 A 
ATOM    154  N7   DG A   6      15.066  92.293  50.511  1.00  0.00    -0.234 NA
ATOM    155  C8   DG A   6      15.048  93.500  50.014  1.00  0.00     0.214 A 
ATOM    156  C2'  DG A   6      17.414  96.064  49.763  1.00  0.00     0.199 C 
ATOM    157  O2'  DG A   6      17.861  97.348  50.154  1.00  0.00    -0.388 OA
ATOM    158 'HO2  DG A   6      18.785  97.254  50.391  1.00  0.00     0.210 HD
ATOM    159  C3'  DG A   6      17.047  96.028  48.284  1.00  0.00     0.198 C 
ATOM    160  O3'  DG A   6      17.980  96.739  47.476  1.00  0.00    -0.279 OA
ATOM    161  P    DG A   7      19.392  96.064  47.106  1.00  0.00     0.408 P 
ATOM    162  OP1  DG A   7      20.241  97.118  46.491  1.00  0.00    -0.624 OA
ATOM    163  OP2  DG A   7      19.123  94.811  46.356  1.00  0.00    -0.624 OA
ATOM    164  O5'  DG A   7      20.020  95.672  48.520  1.00  0.00    -0.287 OA
ATOM    165  C5'  DG A   7      21.096  96.424  49.083  1.00  0.00     0.216 C 
ATOM    166  C4'  DG A   7      21.284  96.065  50.542  1.00  0.00     0.180 C 
ATOM    167  O4'  DG A   7      20.167  95.262  51.000  1.00  0.00    -0.353 OA
ATOM    168  C1'  DG A   7      20.603  94.383  52.022  1.00  0.00     0.262 C 
ATOM    169  N9   DG A   7      20.212  93.023  51.658  1.00  0.00    -0.293 N 
ATOM    170  C4   DG A   7      20.509  91.873  52.352  1.00  0.00     0.187 A 
ATOM    171  N3   DG A   7      21.218  91.797  53.498  1.00  0.00    -0.044 NA
ATOM    172  C2   DG A   7      21.338  90.551  53.922  1.00  0.00     0.703 A 
ATOM    173  N2   DG A   7      22.011  90.295  55.047  1.00  0.00    -0.233 N 
ATOM    174  H21  DG A   7      22.423  91.059  55.564  1.00  0.00     0.174 HD
ATOM    175  H22  DG A   7      22.109  89.345  55.375  1.00  0.00     0.174 HD
ATOM    176  N1   DG A   7      20.807  89.464  53.276  1.00  0.00    -0.153 N 
ATOM    177  H1   DG A   7      20.964  88.558  53.690  1.00  0.00     0.187 HD
ATOM    178  C6   DG A   7      20.073  89.516  52.097  1.00  0.00     0.292 A 
ATOM    179  O6   DG A   7      19.637  88.471  51.597  1.00  0.00    -0.265 OA
ATOM    180  C5   DG A   7      19.934  90.850  51.626  1.00  0.00     0.173 A 
ATOM    181  N7   DG A   7      19.288  91.346  50.501  1.00  0.00    -0.234 NA
ATOM    182  C8   DG A   7      19.480  92.635  50.563  1.00  0.00     0.214 A 
ATOM    183  C2'  DG A   7      22.115  94.561  52.187  1.00  0.00     0.199 C 
ATOM    184  O2'  DG A   7      22.351  95.449  53.265  1.00  0.00    -0.388 OA
ATOM    185 'HO2  DG A   7      23.001  96.083  52.959  1.00  0.00     0.210 HD
ATOM    186  C3'  DG A   7      22.498  95.203  50.857  1.00  0.00     0.198 C 
ATOM    187  O3'  DG A   7      23.686  95.986  50.958  1.00  0.00    -0.279 OA
ATOM    188  P    DT A   8      25.053  95.456  50.297  1.00  0.00     0.408 P 
ATOM    189  OP1  DT A   8      26.140  96.371  50.729  1.00  0.00    -0.624 OA
ATOM    190  OP2  DT A   8      24.815  95.233  48.848  1.00  0.00    -0.624 OA
ATOM    191  O5'  DT A   8      25.289  94.037  50.984  1.00  0.00    -0.287 OA
ATOM    192  C5'  DT A   8      25.705  93.936  52.346  1.00  0.00     0.216 C 
ATOM    193  C4'  DT A   8      25.991  92.495  52.697  1.00  0.00     0.180 C 
ATOM    194  O4'  DT A   8      24.728  91.801  52.891  1.00  0.00    -0.353 OA
ATOM    195  C1'  DT A   8      24.786  90.519  52.294  1.00  0.00     0.264 C 
ATOM    196  N1   DT A   8      23.832  90.488  51.175  1.00  0.00    -0.280 N 
ATOM    197  C6   DT A   8      23.642  91.589  50.371  1.00  0.00     0.104 A 
ATOM    198  C2   DT A   8      23.133  89.315  50.954  1.00  0.00     0.331 A 
ATOM    199  O2   DT A   8      23.272  88.320  51.642  1.00  0.00    -0.246 OA
ATOM    200  N3   DT A   8      22.264  89.350  49.895  1.00  0.00    -0.275 N 
ATOM    201  H3   DT A   8      21.730  88.512  49.725  1.00  0.00     0.173 HD
ATOM    202  C4   DT A   8      22.029  90.412  49.049  1.00  0.00     0.250 A 
ATOM    203  O4   DT A   8      21.233  90.280  48.121  1.00  0.00    -0.268 OA
ATOM    204  C5   DT A   8      22.787  91.586  49.344  1.00  0.00     0.092 A 
ATOM    205  C2'  DT A   8      26.235  90.274  51.871  1.00  0.00     0.199 C 
ATOM    206  O2'  DT A   8      26.928  89.679  52.951  1.00  0.00    -0.388 OA
ATOM    207 'HO2  DT A   8      27.840  89.966  52.897  1.00  0.00     0.210 HD
ATOM    208  C3'  DT A   8      26.717  91.698  51.619  1.00  0.00     0.198 C 
ATOM    209  O3'  DT A   8      28.131  91.829  51.751  1.00  0.00    -0.279 OA
ATOM    210  P    DA A   9      29.081  91.592  50.476  1.00  0.00     0.408 P 
ATOM    211  OP1  DA A   9      30.041  92.724  50.429  1.00  0.00    -0.624 OA
ATOM    212  OP2  DA A   9      28.237  91.295  49.290  1.00  0.00    -0.624 OA
ATOM    213  O5'  DA A   9      29.893  90.271  50.846  1.00  0.00    -0.287 OA
ATOM    214  C5'  DA A   9      30.737  90.224  51.997  1.00  0.00     0.216 C 
ATOM    215  C4'  DA A   9      31.130  88.795  52.296  1.00  0.00     0.180 C 
ATOM    216  O4'  DA A   9      29.952  88.068  52.745  1.00  0.00    -0.353 OA
ATOM    217  C1'  DA A   9      29.916  86.790  52.134  1.00  0.00     0.262 C 
ATOM    218  N9   DA A   9      28.803  86.764  51.185  1.00  0.00    -0.294 N 
ATOM    219  C4   DA A   9      28.190  85.644  50.676  1.00  0.00     0.167 A 
ATOM    220  N3   DA A   9      28.478  84.360  50.948  1.00  0.00    -0.222 NA
ATOM    221  C2   DA A   9      27.677  83.543  50.266  1.00  0.00     0.237 A 
ATOM    222  N1   DA A   9      26.693  83.843  49.408  1.00  0.00    -0.222 NA
ATOM    223  C6   DA A   9      26.428  85.143  49.159  1.00  0.00     0.155 A 
ATOM    224  N6   DA A   9      25.449  85.441  48.306  1.00  0.00    -0.382 N 
ATOM    225  H61  DA A   9      25.234  86.407  48.106  1.00  0.00     0.157 HD
ATOM    226  H62  DA A   9      24.921  84.704  47.857  1.00  0.00     0.157 HD
ATOM    227  C5   DA A   9      27.209  86.109  49.819  1.00  0.00     0.149 A 
ATOM    228  N7   DA A   9      27.199  87.497  49.790  1.00  0.00    -0.236 NA
ATOM    229  C8   DA A   9      28.160  87.835  50.616  1.00  0.00     0.214 A 
ATOM    230  C2'  DA A   9      31.281  86.569  51.484  1.00  0.00     0.199 C 
ATOM    231  O2'  DA A   9      32.169  86.043  52.454  1.00  0.00    -0.388 OA
ATOM    232 'HO2  DA A   9      33.057  86.181  52.123  1.00  0.00     0.210 HD
ATOM    233  C3'  DA A   9      31.652  87.997  51.108  1.00  0.00     0.198 C 
ATOM    234  O3'  DA A   9      33.056  88.168  50.930  1.00  0.00    -0.279 OA
ATOM    235  P    DG A  10      33.701  88.008  49.464  1.00  0.00     0.408 P 
ATOM    236  OP1  DG A  10      35.131  88.398  49.563  1.00  0.00    -0.624 OA
ATOM    237  OP2  DG A  10      32.821  88.695  48.485  1.00  0.00    -0.624 OA
ATOM    238  O5'  DG A  10      33.635  86.441  49.182  1.00  0.00    -0.287 OA
ATOM    239  C5'  DG A  10      34.513  85.539  49.851  1.00  0.00     0.216 C 
ATOM    240  C4'  DG A  10      34.239  84.118  49.416  1.00  0.00     0.180 C 
ATOM    241  O4'  DG A  10      32.839  83.814  49.627  1.00  0.00    -0.353 OA
ATOM    242  C1'  DG A  10      32.424  82.841  48.686  1.00  0.00     0.262 C 
ATOM    243  N9   DG A  10      31.213  83.321  48.028  1.00  0.00    -0.293 N 
ATOM    244  C4   DG A  10      30.286  82.549  47.371  1.00  0.00     0.187 A 
ATOM    245  N3   DG A  10      30.336  81.209  47.224  1.00  0.00    -0.044 NA
ATOM    246  C2   DG A  10      29.303  80.750  46.543  1.00  0.00     0.703 A 
ATOM    247  N2   DG A  10      29.200  79.441  46.307  1.00  0.00    -0.233 N 
ATOM    248  H21  DG A  10      29.917  78.820  46.656  1.00  0.00     0.174 HD
ATOM    249  H22  DG A  10      28.416  79.074  45.786  1.00  0.00     0.174 HD
ATOM    250  N1   DG A  10      28.299  81.540  46.045  1.00  0.00    -0.153 N 
ATOM    251  H1   DG A  10      27.554  81.084  45.537  1.00  0.00     0.187 HD
ATOM    252  C6   DG A  10      28.224  82.920  46.185  1.00  0.00     0.292 A 
ATOM    253  O6   DG A  10      27.270  83.537  45.697  1.00  0.00    -0.265 OA
ATOM    254  C5   DG A  10      29.330  83.431  46.915  1.00  0.00     0.173 A 
ATOM    255  N7   DG A  10      29.648  84.734  47.278  1.00  0.00    -0.234 NA
ATOM    256  C8   DG A  10      30.770  84.618  47.936  1.00  0.00     0.214 A 
ATOM    257  C2'  DG A  10      33.585  82.588  47.719  1.00  0.00     0.199 C 
ATOM    258  O2'  DG A  10      34.262  81.413  48.124  1.00  0.00    -0.388 OA
ATOM    259 'HO2  DG A  10      34.642  81.027  47.334  1.00  0.00     0.210 HD
ATOM    260  C3'  DG A  10      34.450  83.826  47.939  1.00  0.00     0.198 C 
ATOM    261  O3'  DG A  10      35.827  83.591  47.649  1.00  0.00    -0.279 OA
ATOM    262  P    DC A  11      36.315  83.474  46.121  1.00  0.00     0.408 P 
ATOM    263  OP1  DC A  11      37.738  83.049  46.143  1.00  0.00    -0.624 OA
ATOM    264  OP2  DC A  11      35.932  84.717  45.407  1.00  0.00    -0.624 OA
ATOM    265  O5'  DC A  11      35.455  82.269  45.531  1.00  0.00    -0.287 OA
ATOM    266  C5'  DC A  11      35.103  82.226  44.149  1.00  0.00     0.216 C 
ATOM    267  C4'  DC A  11      34.269  80.999  43.865  1.00  0.00     0.180 C 
ATOM    268  O4'  DC A  11      33.062  81.052  44.676  1.00  0.00    -0.353 OA
ATOM    269  C1'  DC A  11      31.948  80.638  43.904  1.00  0.00     0.264 C 
ATOM    270  N1   DC A  11      31.063  81.798  43.706  1.00  0.00    -0.278 N 
ATOM    271  C6   DC A  11      31.402  83.032  44.192  1.00  0.00     0.102 A 
ATOM    272  C2   DC A  11      29.864  81.620  43.010  1.00  0.00     0.352 A 
ATOM    273  O2   DC A  11      29.576  80.492  42.583  1.00  0.00    -0.244 OA
ATOM    274  N3   DC A  11      29.047  82.680  42.817  1.00  0.00    -0.177 NA
ATOM    275  C4   DC A  11      29.387  83.878  43.293  1.00  0.00     0.128 A 
ATOM    276  N4   DC A  11      28.550  84.890  43.079  1.00  0.00    -0.384 N 
ATOM    277  H41  DC A  11      28.769  85.815  43.422  1.00  0.00     0.157 HD
ATOM    278  H42  DC A  11      27.691  84.728  42.572  1.00  0.00     0.157 HD
ATOM    279  C5   DC A  11      30.601  84.090  44.010  1.00  0.00     0.067 A 
ATOM    280  C2'  DC A  11      32.496  80.053  42.603  1.00  0.00     0.199 C 
ATOM    281  O2'  DC A  11      32.789  78.684  42.811  1.00  0.00    -0.388 OA
ATOM    282 'HO2  DC A  11      33.709  78.560  42.575  1.00  0.00     0.210 HD
ATOM    283  C3'  DC A  11      33.769  80.870  42.433  1.00  0.00     0.198 C 
ATOM    284  O3'  DC A  11      34.729  80.223  41.600  1.00  0.00    -0.279 OA
ATOM    285  P    DT A  12      34.619  80.354  40.000  1.00  0.00     0.408 P 
ATOM    286  OP1  DT A  12      35.858  79.778  39.422  1.00  0.00    -0.624 OA
ATOM    287  OP2  DT A  12      34.229  81.746  39.660  1.00  0.00    -0.624 OA
ATOM    288  O5'  DT A  12      33.402  79.398  39.619  1.00  0.00    -0.287 OA
ATOM    289  C5'  DT A  12      33.472  77.991  39.844  1.00  0.00     0.216 C 
ATOM    290  C4'  DT A  12      32.369  77.289  39.089  1.00  0.00     0.180 C 
ATOM    291  O4'  DT A  12      31.088  77.742  39.606  1.00  0.00    -0.353 OA
ATOM    292  C1'  DT A  12      30.181  77.942  38.536  1.00  0.00     0.264 C 
ATOM    293  N1   DT A  12      29.856  79.375  38.465  1.00  0.00    -0.280 N 
ATOM    294  C6   DT A  12      30.699  80.329  38.990  1.00  0.00     0.104 A 
ATOM    295  C2   DT A  12      28.670  79.734  37.850  1.00  0.00     0.331 A 
ATOM    296  O2   DT A  12      27.899  78.921  37.375  1.00  0.00    -0.246 OA
ATOM    297  N3   DT A  12      28.422  81.082  37.812  1.00  0.00    -0.275 N 
ATOM    298  H3   DT A  12      27.563  81.361  37.360  1.00  0.00     0.173 HD
ATOM    299  C4   DT A  12      29.216  82.086  38.314  1.00  0.00     0.250 A 
ATOM    300  O4   DT A  12      28.854  83.257  38.202  1.00  0.00    -0.268 OA
ATOM    301  C5   DT A  12      30.422  81.636  38.935  1.00  0.00     0.092 A 
ATOM    302  C2'  DT A  12      30.839  77.398  37.269  1.00  0.00     0.199 C 
ATOM    303  O2'  DT A  12      30.517  76.026  37.143  1.00  0.00    -0.388 OA
ATOM    304 'HO2  DT A  12      31.317  75.578  36.869  1.00  0.00     0.210 HD
ATOM    305  C3'  DT A  12      32.315  77.589  37.596  1.00  0.00     0.198 C 
ATOM    306  O3'  DT A  12      33.154  76.707  36.855  1.00  0.00    -0.279 OA
ATOM    307  P    DC A  13      33.866  77.224  35.509  1.00  0.00     0.408 P 
ATOM    308  OP1  DC A  13      34.692  76.107  34.984  1.00  0.00    -0.624 OA
ATOM    309  OP2  DC A  13      34.501  78.536  35.790  1.00  0.00    -0.624 OA
ATOM    310  O5'  DC A  13      32.655  77.465  34.501  1.00  0.00    -0.287 OA
ATOM    311  C5'  DC A  13      31.886  76.372  34.000  1.00  0.00     0.216 C 
ATOM    312  C4'  DC A  13      30.895  76.861  32.969  1.00  0.00     0.180 C 
ATOM    313  O4'  DC A  13      29.868  77.646  33.635  1.00  0.00    -0.353 OA
ATOM    314  C1'  DC A  13      29.537  78.773  32.844  1.00  0.00     0.264 C 
ATOM    315  N1   DC A  13      29.934  79.989  33.573  1.00  0.00    -0.278 N 
ATOM    316  C6   DC A  13      31.090  80.020  34.303  1.00  0.00     0.102 A 
ATOM    317  C2   DC A  13      29.110  81.115  33.509  1.00  0.00     0.352 A 
ATOM    318  O2   DC A  13      28.068  81.059  32.840  1.00  0.00    -0.244 OA
ATOM    319  N3   DC A  13      29.469  82.236  34.175  1.00  0.00    -0.177 NA
ATOM    320  C4   DC A  13      30.600  82.256  34.882  1.00  0.00     0.128 A 
ATOM    321  N4   DC A  13      30.913  83.384  35.519  1.00  0.00    -0.384 N 
ATOM    322  H41  DC A  13      31.761  83.443  36.066  1.00  0.00     0.157 HD
ATOM    323  H42  DC A  13      30.293  84.178  35.453  1.00  0.00     0.157 HD
ATOM    324  C5   DC A  13      31.459  81.124  34.966  1.00  0.00     0.067 A 
ATOM    325  C2'  DC A  13      30.243  78.608  31.499  1.00  0.00     0.199 C 
ATOM    326  O2'  DC A  13      29.401  77.873  30.630  1.00  0.00    -0.388 OA
ATOM    327 'HO2  DC A  13      29.569  78.187  29.741  1.00  0.00     0.210 HD
ATOM    328  C3'  DC A  13      31.464  77.795  31.909  1.00  0.00     0.198 C 
ATOM    329  O3'  DC A  13      32.032  77.070  30.821  1.00  0.00    -0.279 OA
ATOM    330  P    DA A  14      32.954  77.833  29.748  1.00  0.00     0.408 P 
ATOM    331  OP1  DA A  14      33.581  76.800  28.885  1.00  0.00    -0.624 OA
ATOM    332  OP2  DA A  14      33.815  78.804  30.472  1.00  0.00    -0.624 OA
ATOM    333  O5'  DA A  14      31.913  78.656  28.864  1.00  0.00    -0.287 OA
ATOM    334  C5'  DA A  14      31.132  78.013  27.859  1.00  0.00     0.216 C 
ATOM    335  C4'  DA A  14      30.388  79.042  27.040  1.00  0.00     0.180 C 
ATOM    336  O4'  DA A  14      29.477  79.766  27.913  1.00  0.00    -0.353 OA
ATOM    337  C1'  DA A  14      29.498  81.144  27.588  1.00  0.00     0.262 C 
ATOM    338  N9   DA A  14      30.080  81.876  28.713  1.00  0.00    -0.294 N 
ATOM    339  C4   DA A  14      29.685  83.106  29.175  1.00  0.00     0.167 A 
ATOM    340  N3   DA A  14      28.694  83.878  28.696  1.00  0.00    -0.222 NA
ATOM    341  C2   DA A  14      28.599  85.007  29.395  1.00  0.00     0.237 A 
ATOM    342  N1   DA A  14      29.326  85.420  30.440  1.00  0.00    -0.222 NA
ATOM    343  C6   DA A  14      30.313  84.621  30.897  1.00  0.00     0.155 A 
ATOM    344  N6   DA A  14      31.036  85.036  31.937  1.00  0.00    -0.382 N 
ATOM    345  H61  DA A  14      31.780  84.454  32.294  1.00  0.00     0.157 HD
ATOM    346  H62  DA A  14      30.821  85.925  32.363  1.00  0.00     0.157 HD
ATOM    347  C5   DA A  14      30.518  83.395  30.241  1.00  0.00     0.149 A 
ATOM    348  N7   DA A  14      31.423  82.364  30.449  1.00  0.00    -0.236 NA
ATOM    349  C8   DA A  14      31.124  81.490  29.518  1.00  0.00     0.214 A 
ATOM    350  C2'  DA A  14      30.287  81.291  26.288  1.00  0.00     0.199 C 
ATOM    351  O2'  DA A  14      29.403  81.118  25.196  1.00  0.00    -0.388 OA
ATOM    352 'HO2  DA A  14      29.805  80.471  24.615  1.00  0.00     0.210 HD
ATOM    353  C3'  DA A  14      31.255  80.120  26.402  1.00  0.00     0.198 C 
ATOM    354  O3'  DA A  14      31.761  79.710  25.135  1.00  0.00    -0.279 OA
ATOM    355  P    DG A  15      33.130  80.347  24.577  1.00  0.00     0.408 P 
ATOM    356  OP1  DG A  15      33.262  79.935  23.156  1.00  0.00    -0.624 OA
ATOM    357  OP2  DG A  15      34.216  80.028  25.537  1.00  0.00    -0.624 OA
ATOM    358  O5'  DG A  15      32.871  81.919  24.619  1.00  0.00    -0.287 OA
ATOM    359  C5'  DG A  15      31.958  82.538  23.714  1.00  0.00     0.216 C 
ATOM    360  C4'  DG A  15      31.786  83.998  24.065  1.00  0.00     0.180 C 
ATOM    361  O4'  DG A  15      31.249  84.097  25.412  1.00  0.00    -0.353 OA
ATOM    362  C1'  DG A  15      31.877  85.160  26.103  1.00  0.00     0.262 C 
ATOM    363  N9   DG A  15      32.623  84.602  27.227  1.00  0.00    -0.293 N 
ATOM    364  C4   DG A  15      32.883  85.221  28.427  1.00  0.00     0.187 A 
ATOM    365  N3   DG A  15      32.488  86.463  28.780  1.00  0.00    -0.044 NA
ATOM    366  C2   DG A  15      32.893  86.781  29.995  1.00  0.00     0.703 A 
ATOM    367  N2   DG A  15      32.586  87.977  30.505  1.00  0.00    -0.233 N 
ATOM    368  H21  DG A  15      32.046  88.627  29.953  1.00  0.00     0.174 HD
ATOM    369  H22  DG A  15      32.894  88.232  31.433  1.00  0.00     0.174 HD
ATOM    370  N1   DG A  15      33.628  85.952  30.803  1.00  0.00    -0.153 N 
ATOM    371  H1   DG A  15      33.890  86.293  31.714  1.00  0.00     0.187 HD
ATOM    372  C6   DG A  15      34.043  84.669  30.463  1.00  0.00     0.292 A 
ATOM    373  O6   DG A  15      34.700  84.003  31.271  1.00  0.00    -0.265 OA
ATOM    374  C5   DG A  15      33.617  84.311  29.157  1.00  0.00     0.173 A 
ATOM    375  N7   DG A  15      33.812  83.141  28.435  1.00  0.00    -0.234 NA
ATOM    376  C8   DG A  15      33.207  83.360  27.300  1.00  0.00     0.214 A 
ATOM    377  C2'  DG A  15      32.752  85.914  25.101  1.00  0.00     0.199 C 
ATOM    378  O2'  DG A  15      31.981  86.941  24.506  1.00  0.00    -0.388 OA
ATOM    379 'HO2  DG A  15      31.951  86.748  23.568  1.00  0.00     0.210 HD
ATOM    380  C3'  DG A  15      33.073  84.813  24.096  1.00  0.00     0.198 C 
ATOM    381  O3'  DG A  15      33.389  85.332  22.807  1.00  0.00    -0.279 OA
ATOM    382  P    DT A  16      34.836  85.050  22.164  1.00  0.00     0.408 P 
ATOM    383  OP1  DT A  16      34.802  85.556  20.768  1.00  0.00    -0.624 OA
ATOM    384  OP2  DT A  16      35.204  83.635  22.421  1.00  0.00    -0.624 OA
ATOM    385  O5'  DT A  16      35.818  85.985  23.002  1.00  0.00    -0.287 OA
ATOM    386  C5'  DT A  16      35.545  87.375  23.170  1.00  0.00     0.216 C 
ATOM    387  C4'  DT A  16      36.722  88.063  23.820  1.00  0.00     0.180 C 
ATOM    388  O4'  DT A  16      36.806  89.419  23.310  1.00  0.00    -0.353 OA
ATOM    389  C1'  DT A  16      37.174  90.304  24.352  1.00  0.00     0.264 C 
ATOM    390  N1   DT A  16      36.093  91.286  24.524  1.00  0.00    -0.280 N 
ATOM    391  C6   DT A  16      34.777  90.948  24.298  1.00  0.00     0.104 A 
ATOM    392  C2   DT A  16      36.442  92.564  24.918  1.00  0.00     0.331 A 
ATOM    393  O2   DT A  16      37.593  92.900  25.131  1.00  0.00    -0.246 OA
ATOM    394  N3   DT A  16      35.393  93.436  25.053  1.00  0.00    -0.275 N 
ATOM    395  H3   DT A  16      35.623  94.373  25.348  1.00  0.00     0.173 HD
ATOM    396  C4   DT A  16      34.061  93.170  24.839  1.00  0.00     0.250 A 
ATOM    397  O4   DT A  16      33.235  94.072  24.973  1.00  0.00    -0.268 OA
ATOM    398  C5   DT A  16      33.779  91.827  24.439  1.00  0.00     0.092 A 
ATOM    399  C2'  DT A  16      37.460  89.469  25.601  1.00  0.00     0.199 C 
ATOM    400  O2'  DT A  16      38.843  89.164  25.633  1.00  0.00    -0.388 OA
ATOM    401 'HO2  DT A  16      38.919  88.219  25.496  1.00  0.00     0.210 HD
ATOM    402  C3'  DT A  16      36.630  88.217  25.333  1.00  0.00     0.198 C 
ATOM    403  O3'  DT A  16      37.153  87.072  26.000  1.00  0.00    -0.279 OA
ATOM    404  P    DC A  17      36.594  86.664  27.452  1.00  0.00     0.408 P 
ATOM    405  OP1  DC A  17      37.771  86.393  28.317  1.00  0.00    -0.624 OA
ATOM    406  OP2  DC A  17      35.563  85.613  27.269  1.00  0.00    -0.624 OA
ATOM    407  O5'  DC A  17      35.872  87.985  27.977  1.00  0.00    -0.287 OA
ATOM    408  C5'  DC A  17      36.166  88.528  29.266  1.00  0.00     0.216 C 
ATOM    409  C4'  DC A  17      36.023  90.036  29.247  1.00  0.00     0.180 C 
ATOM    410  O4'  DC A  17      35.611  90.456  27.915  1.00  0.00    -0.353 OA
ATOM    411  C1'  DC A  17      34.545  91.381  28.011  1.00  0.00     0.264 C 
ATOM    412  N1   DC A  17      33.314  90.721  27.548  1.00  0.00    -0.278 N 
ATOM    413  C6   DC A  17      33.261  89.363  27.393  1.00  0.00     0.102 A 
ATOM    414  C2   DC A  17      32.192  91.505  27.265  1.00  0.00     0.352 A 
ATOM    415  O2   DC A  17      32.265  92.733  27.416  1.00  0.00    -0.244 OA
ATOM    416  N3   DC A  17      31.058  90.908  26.837  1.00  0.00    -0.177 NA
ATOM    417  C4   DC A  17      31.018  89.583  26.690  1.00  0.00     0.128 A 
ATOM    418  N4   DC A  17      29.879  89.038  26.265  1.00  0.00    -0.384 N 
ATOM    419  H41  DC A  17      29.816  88.036  26.142  1.00  0.00     0.157 HD
ATOM    420  H42  DC A  17      29.086  89.629  26.064  1.00  0.00     0.157 HD
ATOM    421  C5   DC A  17      32.145  88.759  26.971  1.00  0.00     0.067 A 
ATOM    422  C2'  DC A  17      34.492  91.850  29.464  1.00  0.00     0.199 C 
ATOM    423  O2'  DC A  17      35.406  92.918  29.631  1.00  0.00    -0.388 OA
ATOM    424 'HO2  DC A  17      36.071  92.616  30.251  1.00  0.00     0.210 HD
ATOM    425  C3'  DC A  17      34.964  90.596  30.190  1.00  0.00     0.198 C 
ATOM    426  O3'  DC A  17      35.513  90.887  31.473  1.00  0.00    -0.279 OA
ATOM    427  P    DG A  18      35.018  90.062  32.763  1.00  0.00     0.408 P 
ATOM    428  OP1  DG A  18      36.006  90.294  33.845  1.00  0.00    -0.624 OA
ATOM    429  OP2  DG A  18      34.701  88.671  32.343  1.00  0.00    -0.624 OA
ATOM    430  O5'  DG A  18      33.656  90.776  33.178  1.00  0.00    -0.287 OA
ATOM    431  C5'  DG A  18      32.775  90.184  34.131  1.00  0.00     0.216 C 
ATOM    432  C4'  DG A  18      31.725  91.182  34.560  1.00  0.00     0.180 C 
ATOM    433  O4'  DG A  18      30.565  91.026  33.701  1.00  0.00    -0.353 OA
ATOM    434  C1'  DG A  18      29.495  90.459  34.433  1.00  0.00     0.262 C 
ATOM    435  N9   DG A  18      28.954  89.352  33.652  1.00  0.00    -0.293 N 
ATOM    436  C4   DG A  18      27.725  89.305  33.038  1.00  0.00     0.187 A 
ATOM    437  N3   DG A  18      26.794  90.281  33.053  1.00  0.00    -0.044 NA
ATOM    438  C2   DG A  18      25.715  89.943  32.372  1.00  0.00     0.703 A 
ATOM    439  N2   DG A  18      24.691  90.798  32.288  1.00  0.00    -0.233 N 
ATOM    440  H21  DG A  18      24.756  91.695  32.746  1.00  0.00     0.174 HD
ATOM    441  H22  DG A  18      23.853  90.543  31.787  1.00  0.00     0.174 HD
ATOM    442  N1   DG A  18      25.557  88.744  31.725  1.00  0.00    -0.153 N 
ATOM    443  H1   DG A  18      24.693  88.580  31.235  1.00  0.00     0.187 HD
ATOM    444  C6   DG A  18      26.502  87.725  31.693  1.00  0.00     0.292 A 
ATOM    445  O6   DG A  18      26.259  86.682  31.076  1.00  0.00    -0.265 OA
ATOM    446  C5   DG A  18      27.669  88.072  32.424  1.00  0.00     0.173 A 
ATOM    447  N7   DG A  18      28.838  87.356  32.648  1.00  0.00    -0.234 NA
ATOM    448  C8   DG A  18      29.567  88.152  33.380  1.00  0.00     0.214 A 
ATOM    449  C2'  DG A  18      30.033  90.044  35.802  1.00  0.00     0.199 C 
ATOM    450  O2'  DG A  18      29.032  90.281  36.775  1.00  0.00    -0.388 OA
ATOM    451 'HO2  DG A  18      29.114  91.203  37.022  1.00  0.00     0.210 HD
ATOM    452  C3'  DG A  18      31.201  91.008  35.979  1.00  0.00     0.198 C 
ATOM    453  O3'  DG A  18      30.796  92.254  36.539  1.00  0.00    -0.279 OA
ATOM    454  P    DA A  19      31.863  93.158  37.333  1.00  0.00     0.408 P 
ATOM    455  OP1  DA A  19      32.704  93.847  36.321  1.00  0.00    -0.624 OA
ATOM    456  OP2  DA A  19      32.507  92.311  38.369  1.00  0.00    -0.624 OA
ATOM    457  O5'  DA A  19      30.969  94.256  38.063  1.00  0.00    -0.287 OA
ATOM    458  C5'  DA A  19      31.027  94.431  39.478  1.00  0.00     0.216 C 
ATOM    459  C4'  DA A  19      30.408  95.754  39.868  1.00  0.00     0.180 C 
ATOM    460  O4'  DA A  19      31.279  96.830  39.417  1.00  0.00    -0.353 OA
ATOM    461  C1'  DA A  19      30.500  97.869  38.852  1.00  0.00     0.262 C 
ATOM    462  N9   DA A  19      30.753  97.902  37.412  1.00  0.00    -0.294 N 
ATOM    463  C4   DA A  19      30.554  98.970  36.570  1.00  0.00     0.167 A 
ATOM    464  N3   DA A  19      30.096 100.192  36.895  1.00  0.00    -0.222 NA
ATOM    465  C2   DA A  19      30.031 100.970  35.818  1.00  0.00     0.237 A 
ATOM    466  N1   DA A  19      30.348 100.688  34.547  1.00  0.00    -0.222 NA
ATOM    467  C6   DA A  19      30.804  99.452  34.255  1.00  0.00     0.155 A 
ATOM    468  N6   DA A  19      31.115  99.172  32.990  1.00  0.00    -0.382 N 
ATOM    469  H61  DA A  19      31.456  98.251  32.751  1.00  0.00     0.157 HD
ATOM    470  H62  DA A  19      31.010  99.881  32.279  1.00  0.00     0.157 HD
ATOM    471  C5   DA A  19      30.921  98.531  35.311  1.00  0.00     0.149 A 
ATOM    472  N7   DA A  19      31.346  97.211  35.356  1.00  0.00    -0.236 NA
ATOM    473  C8   DA A  19      31.228  96.886  36.619  1.00  0.00     0.214 A 
ATOM    474  C2'  DA A  19      29.045  97.581  39.214  1.00  0.00     0.199 C 
ATOM    475  O2'  DA A  19      28.782  98.114  40.499  1.00  0.00    -0.388 OA
ATOM    476 'HO2  DA A  19      28.414  97.402  41.023  1.00  0.00     0.210 HD
ATOM    477  C3'  DA A  19      29.054  96.059  39.238  1.00  0.00     0.198 C 
ATOM    478  O3'  DA A  19      27.979  95.522  40.004  1.00  0.00    -0.279 OA
ATOM    479  P    DT A  20      26.541  95.301  39.316  1.00  0.00     0.408 P 
ATOM    480  OP1  DT A  20      25.575  95.000  40.404  1.00  0.00    -0.624 OA
ATOM    481  OP2  DT A  20      26.700  94.343  38.192  1.00  0.00    -0.624 OA
ATOM    482  O5'  DT A  20      26.179  96.729  38.709  1.00  0.00    -0.287 OA
ATOM    483  C5'  DT A  20      25.747  97.798  39.551  1.00  0.00     0.216 C 
ATOM    484  C4'  DT A  20      25.577  99.064  38.743  1.00  0.00     0.180 C 
ATOM    485  O4'  DT A  20      26.826  99.369  38.064  1.00  0.00    -0.353 OA
ATOM    486  C1'  DT A  20      26.552  99.915  36.784  1.00  0.00     0.264 C 
ATOM    487  N1   DT A  20      27.124  99.024  35.764  1.00  0.00    -0.280 N 
ATOM    488  C6   DT A  20      27.335  97.687  36.019  1.00  0.00     0.104 A 
ATOM    489  C2   DT A  20      27.441  99.574  34.536  1.00  0.00     0.331 A 
ATOM    490  O2   DT A  20      27.271 100.750  34.271  1.00  0.00    -0.246 OA
ATOM    491  N3   DT A  20      27.966  98.694  33.625  1.00  0.00    -0.275 N 
ATOM    492  H3   DT A  20      28.202  99.074  32.722  1.00  0.00     0.173 HD
ATOM    493  C4   DT A  20      28.203  97.352  33.811  1.00  0.00     0.250 A 
ATOM    494  O4   DT A  20      28.682  96.691  32.890  1.00  0.00    -0.268 OA
ATOM    495  C5   DT A  20      27.852  96.860  35.106  1.00  0.00     0.092 A 
ATOM    496  C2'  DT A  20      25.037 100.078  36.668  1.00  0.00     0.199 C 
ATOM    497  O2'  DT A  20      24.682 101.366  37.136  1.00  0.00    -0.388 OA
ATOM    498 'HO2  DT A  20      24.072 101.234  37.863  1.00  0.00     0.210 HD
ATOM    499  C3'  DT A  20      24.552  98.993  37.620  1.00  0.00     0.198 C 
ATOM    500  O3'  DT A  20      23.230  99.234  38.092  1.00  0.00    -0.279 OA
ATOM    501  P    DC A  21      21.982  98.525  37.368  1.00  0.00     0.408 P 
ATOM    502  OP1  DC A  21      21.654  99.326  36.162  1.00  0.00    -0.624 OA
ATOM    503  OP2  DC A  21      20.935  98.281  38.394  1.00  0.00    -0.624 OA
ATOM    504  O5'  DC A  21      22.560  97.115  36.898  1.00  0.00    -0.287 OA
ATOM    505  C5'  DC A  21      21.687  96.033  36.577  1.00  0.00     0.216 C 
ATOM    506  C4'  DC A  21      22.442  94.950  35.840  1.00  0.00     0.180 C 
ATOM    507  O4'  DC A  21      22.718  95.418  34.488  1.00  0.00    -0.353 OA
ATOM    508  C1'  DC A  21      24.091  95.267  34.211  1.00  0.00     0.264 C 
ATOM    509  N1   DC A  21      24.493  96.308  33.248  1.00  0.00    -0.278 N 
ATOM    510  C6   DC A  21      24.860  95.970  31.976  1.00  0.00     0.102 A 
ATOM    511  C2   DC A  21      24.494  97.649  33.650  1.00  0.00     0.352 A 
ATOM    512  O2   DC A  21      24.162  97.931  34.809  1.00  0.00    -0.244 OA
ATOM    513  N3   DC A  21      24.857  98.603  32.763  1.00  0.00    -0.177 NA
ATOM    514  C4   DC A  21      25.211  98.262  31.524  1.00  0.00     0.128 A 
ATOM    515  N4   DC A  21      25.561  99.238  30.686  1.00  0.00    -0.384 N 
ATOM    516  H41  DC A  21      25.834  99.021  29.739  1.00  0.00     0.157 HD
ATOM    517  H42  DC A  21      25.542 100.195  31.006  1.00  0.00     0.157 HD
ATOM    518  C5   DC A  21      25.222  96.905  31.089  1.00  0.00     0.067 A 
ATOM    519  C2'  DC A  21      24.792  95.330  35.564  1.00  0.00     0.199 C 
ATOM    520  O2'  DC A  21      26.027  94.643  35.468  1.00  0.00    -0.388 OA
ATOM    521 'HO2  DC A  21      26.044  94.000  36.177  1.00  0.00     0.210 HD
ATOM    522  C3'  DC A  21      23.798  94.570  36.437  1.00  0.00     0.198 C 
ATOM    523  O3'  DC A  21      24.013  93.160  36.385  1.00  0.00    -0.279 OA
ATOM    524  P    DC A  22      23.423  92.213  37.544  1.00  0.00     0.408 P 
ATOM    525  OP1  DC A  22      22.381  92.975  38.277  1.00  0.00    -0.624 OA
ATOM    526  OP2  DC A  22      24.568  91.631  38.290  1.00  0.00    -0.624 OA
ATOM    527  O5'  DC A  22      22.705  91.032  36.748  1.00  0.00    -0.287 OA
ATOM    528  C5'  DC A  22      21.575  91.288  35.913  1.00  0.00     0.216 C 
ATOM    529  C4'  DC A  22      21.390  90.162  34.923  1.00  0.00     0.180 C 
ATOM    530  O4'  DC A  22      22.560  90.107  34.060  1.00  0.00    -0.353 OA
ATOM    531  C1'  DC A  22      22.992  88.767  33.921  1.00  0.00     0.264 C 
ATOM    532  N1   DC A  22      24.257  88.604  34.655  1.00  0.00    -0.278 N 
ATOM    533  C6   DC A  22      24.806  89.646  35.349  1.00  0.00     0.102 A 
ATOM    534  C2   DC A  22      24.895  87.360  34.632  1.00  0.00     0.352 A 
ATOM    535  O2   DC A  22      24.378  86.433  33.993  1.00  0.00    -0.244 OA
ATOM    536  N3   DC A  22      26.055  87.199  35.305  1.00  0.00    -0.177 NA
ATOM    537  C4   DC A  22      26.582  88.222  35.979  1.00  0.00     0.128 A 
ATOM    538  N4   DC A  22      27.727  88.014  36.625  1.00  0.00    -0.384 N 
ATOM    539  H41  DC A  22      28.154  88.770  37.144  1.00  0.00     0.157 HD
ATOM    540  H42  DC A  22      28.163  87.104  36.593  1.00  0.00     0.157 HD
ATOM    541  C5   DC A  22      25.957  89.502  36.018  1.00  0.00     0.067 A 
ATOM    542  C2'  DC A  22      21.859  87.882  34.436  1.00  0.00     0.199 C 
ATOM    543  O2'  DC A  22      20.930  87.682  33.387  1.00  0.00    -0.388 OA
ATOM    544 'HO2  DC A  22      20.073  87.943  33.724  1.00  0.00     0.210 HD
ATOM    545  C3'  DC A  22      21.272  88.767  35.527  1.00  0.00     0.198 C 
ATOM    546  O3'  DC A  22      19.917  88.436  35.821  1.00  0.00    -0.279 OA
ATOM    547  P    DC A  23      19.590  87.293  36.906  1.00  0.00     0.408 P 
ATOM    548  OP1  DC A  23      18.111  87.169  36.982  1.00  0.00    -0.624 OA
ATOM    549  OP2  DC A  23      20.364  87.584  38.139  1.00  0.00    -0.624 OA
ATOM    550  O5'  DC A  23      20.170  85.960  36.255  1.00  0.00    -0.287 OA
ATOM    551  C5'  DC A  23      19.681  85.479  35.004  1.00  0.00     0.216 C 
ATOM    552  C4'  DC A  23      20.176  84.072  34.752  1.00  0.00     0.180 C 
ATOM    553  O4'  DC A  23      21.536  84.128  34.242  1.00  0.00    -0.353 OA
ATOM    554  C1'  DC A  23      22.275  83.022  34.734  1.00  0.00     0.264 C 
ATOM    555  N1   DC A  23      23.406  83.531  35.527  1.00  0.00    -0.278 N 
ATOM    556  C6   DC A  23      23.303  84.705  36.221  1.00  0.00     0.102 A 
ATOM    557  C2   DC A  23      24.592  82.792  35.566  1.00  0.00     0.352 A 
ATOM    558  O2   DC A  23      24.661  81.735  34.924  1.00  0.00    -0.244 OA
ATOM    559  N3   DC A  23      25.632  83.248  36.302  1.00  0.00    -0.177 NA
ATOM    560  C4   DC A  23      25.519  84.391  36.977  1.00  0.00     0.128 A 
ATOM    561  N4   DC A  23      26.567  84.796  37.693  1.00  0.00    -0.384 N 
ATOM    562  H41  DC A  23      26.516  85.656  38.217  1.00  0.00     0.157 HD
ATOM    563  H42  DC A  23      27.409  84.237  37.709  1.00  0.00     0.157 HD
ATOM    564  C5   DC A  23      24.325  85.169  36.952  1.00  0.00     0.067 A 
ATOM    565  C2'  DC A  23      21.313  82.148  35.540  1.00  0.00     0.199 C 
ATOM    566  O2'  DC A  23      20.741  81.186  34.672  1.00  0.00    -0.388 OA
ATOM    567 'HO2  DC A  23      19.797  81.348  34.673  1.00  0.00     0.210 HD
ATOM    568  C3'  DC A  23      20.280  83.178  35.979  1.00  0.00     0.198 C 
ATOM    569  O3'  DC A  23      19.025  82.589  36.313  1.00  0.00    -0.279 OA
ATOM    570  P    DG A  24      18.697  82.228  37.846  1.00  0.00     0.408 P 
ATOM    571  OP1  DG A  24      17.346  81.611  37.874  1.00  0.00    -0.624 OA
ATOM    572  OP2  DG A  24      18.974  83.424  38.681  1.00  0.00    -0.624 OA
ATOM    573  O5'  DG A  24      19.761  81.099  38.212  1.00  0.00    -0.287 OA
ATOM    574  C5'  DG A  24      19.745  79.834  37.554  1.00  0.00     0.216 C 
ATOM    575  C4'  DG A  24      21.044  79.100  37.796  1.00  0.00     0.180 C 
ATOM    576  O4'  DG A  24      22.156  79.981  37.506  1.00  0.00    -0.353 OA
ATOM    577  C1'  DG A  24      23.278  79.580  38.270  1.00  0.00     0.262 C 
ATOM    578  N9   DG A  24      23.843  80.760  38.919  1.00  0.00    -0.293 N 
ATOM    579  C4   DG A  24      24.977  80.793  39.693  1.00  0.00     0.187 A 
ATOM    580  N3   DG A  24      25.764  79.738  39.989  1.00  0.00    -0.044 NA
ATOM    581  C2   DG A  24      26.784  80.083  40.754  1.00  0.00     0.703 A 
ATOM    582  N2   DG A  24      27.662  79.154  41.141  1.00  0.00    -0.233 N 
ATOM    583  H21  DG A  24      27.530  78.199  40.840  1.00  0.00     0.174 HD
ATOM    584  H22  DG A  24      28.450  79.397  41.726  1.00  0.00     0.174 HD
ATOM    585  N1   DG A  24      27.014  81.360  41.194  1.00  0.00    -0.153 N 
ATOM    586  H1   DG A  24      27.825  81.516  41.773  1.00  0.00     0.187 HD
ATOM    587  C6   DG A  24      26.218  82.462  40.905  1.00  0.00     0.292 A 
ATOM    588  O6   DG A  24      26.517  83.572  41.359  1.00  0.00    -0.265 OA
ATOM    589  C5   DG A  24      25.117  82.108  40.083  1.00  0.00     0.173 A 
ATOM    590  N7   DG A  24      24.089  82.887  39.565  1.00  0.00    -0.234 NA
ATOM    591  C8   DG A  24      23.361  82.046  38.884  1.00  0.00     0.214 A 
ATOM    592  C2'  DG A  24      22.822  78.504  39.260  1.00  0.00     0.199 C 
ATOM    593  O2'  DG A  24      23.205  77.239  38.755  1.00  0.00    -0.388 OA
ATOM    594 'HO2  DG A  24      22.408  76.710  38.708  1.00  0.00     0.210 HD
ATOM    595  C3'  DG A  24      21.303  78.669  39.230  1.00  0.00     0.198 C 
ATOM    596  O3'  DG A  24      20.620  77.457  39.546  1.00  0.00    -0.279 OA
ATOM    597  P    DC A  25      20.232  77.131  41.074  1.00  0.00     0.408 P 
ATOM    598  OP1  DC A  25      19.611  75.783  41.097  1.00  0.00    -0.624 OA
ATOM    599  OP2  DC A  25      19.485  78.293  41.621  1.00  0.00    -0.624 OA
ATOM    600  O5'  DC A  25      21.637  77.043  41.820  1.00  0.00    -0.287 OA
ATOM    601  C5'  DC A  25      22.570  76.012  41.505  1.00  0.00     0.216 C 
ATOM    602  C4'  DC A  25      23.592  75.872  42.610  1.00  0.00     0.180 C 
ATOM    603  O4'  DC A  25      24.660  76.827  42.391  1.00  0.00    -0.353 OA
ATOM    604  C1'  DC A  25      25.178  77.255  43.637  1.00  0.00     0.264 C 
ATOM    605  N1   DC A  25      25.100  78.724  43.693  1.00  0.00    -0.278 N 
ATOM    606  C6   DC A  25      24.083  79.396  43.074  1.00  0.00     0.102 A 
ATOM    607  C2   DC A  25      26.086  79.425  44.392  1.00  0.00     0.352 A 
ATOM    608  O2   DC A  25      26.997  78.793  44.942  1.00  0.00    -0.244 OA
ATOM    609  N3   DC A  25      26.021  80.774  44.453  1.00  0.00    -0.177 NA
ATOM    610  C4   DC A  25      25.024  81.421  43.849  1.00  0.00     0.128 A 
ATOM    611  N4   DC A  25      25.001  82.749  43.939  1.00  0.00    -0.384 N 
ATOM    612  H41  DC A  25      24.264  83.278  43.497  1.00  0.00     0.157 HD
ATOM    613  H42  DC A  25      25.727  83.228  44.455  1.00  0.00     0.157 HD
ATOM    614  C5   DC A  25      24.006  80.733  43.127  1.00  0.00     0.067 A 
ATOM    615  C2'  DC A  25      24.382  76.558  44.744  1.00  0.00     0.199 C 
ATOM    616  O2'  DC A  25      25.092  75.403  45.149  1.00  0.00    -0.388 OA
ATOM    617 'HO2  DC A  25      24.448  74.809  45.536  1.00  0.00     0.210 HD
ATOM    618  C3'  DC A  25      23.097  76.188  44.014  1.00  0.00     0.198 C 
ATOM    619  O3'  DC A  25      22.444  75.065  44.604  1.00  0.00    -0.279 OA
ATOM    620  P    DT A  26      21.051  75.263  45.384  1.00  0.00     0.408 P 
ATOM    621  OP1  DT A  26      20.349  73.954  45.350  1.00  0.00    -0.624 OA
ATOM    622  OP2  DT A  26      20.368  76.474  44.859  1.00  0.00    -0.624 OA
ATOM    623  O5'  DT A  26      21.488  75.539  46.893  1.00  0.00    -0.287 OA
ATOM    624  C5'  DT A  26      21.811  76.854  47.342  1.00  0.00     0.216 C 
ATOM    625  C4'  DT A  26      23.066  76.821  48.182  1.00  0.00     0.180 C 
ATOM    626  O4'  DT A  26      24.140  77.463  47.440  1.00  0.00    -0.353 OA
ATOM    627  C1'  DT A  26      24.893  78.294  48.305  1.00  0.00     0.264 C 
ATOM    628  N1   DT A  26      24.685  79.692  47.900  1.00  0.00    -0.280 N 
ATOM    629  C6   DT A  26      23.694  80.038  47.010  1.00  0.00     0.104 A 
ATOM    630  C2   DT A  26      25.518  80.653  48.444  1.00  0.00     0.331 A 
ATOM    631  O2   DT A  26      26.407  80.390  49.232  1.00  0.00    -0.246 OA
ATOM    632  N3   DT A  26      25.271  81.937  48.031  1.00  0.00    -0.275 N 
ATOM    633  H3   DT A  26      25.868  82.656  48.413  1.00  0.00     0.173 HD
ATOM    634  C4   DT A  26      24.300  82.350  47.148  1.00  0.00     0.250 A 
ATOM    635  O4   DT A  26      24.205  83.545  46.869  1.00  0.00    -0.268 OA
ATOM    636  C5   DT A  26      23.481  81.300  46.630  1.00  0.00     0.092 A 
ATOM    637  C2'  DT A  26      24.442  77.987  49.732  1.00  0.00     0.199 C 
ATOM    638  O2'  DT A  26      25.203  76.901  50.228  1.00  0.00    -0.388 OA
ATOM    639 'HO2  DT A  26      24.579  76.213  50.465  1.00  0.00     0.210 HD
ATOM    640  C3'  DT A  26      22.992  77.582  49.501  1.00  0.00     0.198 C 
ATOM    641  O3'  DT A  26      22.486  76.757  50.549  1.00  0.00    -0.279 OA
ATOM    642  P    DT A  27      21.189  77.221  51.382  1.00  0.00     0.408 P 
ATOM    643  OP1  DT A  27      20.553  75.996  51.929  1.00  0.00    -0.624 OA
ATOM    644  OP2  DT A  27      20.391  78.150  50.542  1.00  0.00    -0.624 OA
ATOM    645  O5'  DT A  27      21.793  78.050  52.601  1.00  0.00    -0.287 OA
ATOM    646  C5'  DT A  27      22.673  77.437  53.543  1.00  0.00     0.216 C 
ATOM    647  C4'  DT A  27      23.347  78.493  54.387  1.00  0.00     0.180 C 
ATOM    648  O4'  DT A  27      24.363  79.160  53.587  1.00  0.00    -0.353 OA
ATOM    649  C1'  DT A  27      24.353  80.550  53.862  1.00  0.00     0.264 C 
ATOM    650  N1   DT A  27      23.920  81.262  52.649  1.00  0.00    -0.280 N 
ATOM    651  C6   DT A  27      23.080  80.668  51.732  1.00  0.00     0.104 A 
ATOM    652  C2   DT A  27      24.380  82.552  52.463  1.00  0.00     0.331 A 
ATOM    653  O2   DT A  27      25.128  83.110  53.245  1.00  0.00    -0.246 OA
ATOM    654  N3   DT A  27      23.932  83.168  51.322  1.00  0.00    -0.275 N 
ATOM    655  H3   DT A  27      24.254  84.111  51.168  1.00  0.00     0.173 HD
ATOM    656  C4   DT A  27      23.090  82.639  50.371  1.00  0.00     0.250 A 
ATOM    657  O4   DT A  27      22.759  83.329  49.408  1.00  0.00    -0.268 OA
ATOM    658  C5   DT A  27      22.664  81.299  50.631  1.00  0.00     0.092 A 
ATOM    659  C2'  DT A  27      23.429  80.765  55.059  1.00  0.00     0.199 C 
ATOM    660  O2'  DT A  27      24.182  80.608  56.248  1.00  0.00    -0.388 OA
ATOM    661 'HO2  DT A  27      23.699  79.992  56.801  1.00  0.00     0.210 HD
ATOM    662  C3'  DT A  27      22.444  79.619  54.872  1.00  0.00     0.198 C 
ATOM    663  O3'  DT A  27      21.770  79.277  56.079  1.00  0.00    -0.279 OA
ATOM    664  P    DC A  28      20.393  80.015  56.459  1.00  0.00     0.408 P 
ATOM    665  OP1  DC A  28      19.906  79.426  57.731  1.00  0.00    -0.624 OA
ATOM    666  OP2  DC A  28      19.512  80.006  55.262  1.00  0.00    -0.624 OA
ATOM    667  O5'  DC A  28      20.827  81.521  56.743  1.00  0.00    -0.287 OA
ATOM    668  C5'  DC A  28      21.723  81.837  57.805  1.00  0.00     0.216 C 
ATOM    669  C4'  DC A  28      22.065  83.310  57.784  1.00  0.00     0.180 C 
ATOM    670  O4'  DC A  28      22.564  83.675  56.471  1.00  0.00    -0.353 OA
ATOM    671  C1'  DC A  28      22.235  85.029  56.203  1.00  0.00     0.264 C 
ATOM    672  N1   DC A  28      21.486  85.093  54.937  1.00  0.00    -0.278 N 
ATOM    673  C6   DC A  28      21.031  83.956  54.328  1.00  0.00     0.102 A 
ATOM    674  C2   DC A  28      21.242  86.346  54.366  1.00  0.00     0.352 A 
ATOM    675  O2   DC A  28      21.666  87.361  54.937  1.00  0.00    -0.244 OA
ATOM    676  N3   DC A  28      20.551  86.422  53.209  1.00  0.00    -0.177 NA
ATOM    677  C4   DC A  28      20.109  85.309  52.623  1.00  0.00     0.128 A 
ATOM    678  N4   DC A  28      19.428  85.436  51.484  1.00  0.00    -0.384 N 
ATOM    679  H41  DC A  28      19.075  84.619  51.008  1.00  0.00     0.157 HD
ATOM    680  H42  DC A  28      19.270  86.358  51.100  1.00  0.00     0.157 HD
ATOM    681  C5   DC A  28      20.343  84.016  53.180  1.00  0.00     0.067 A 
ATOM    682  C2'  DC A  28      21.441  85.559  57.399  1.00  0.00     0.199 C 
ATOM    683  O2'  DC A  28      22.336  86.197  58.290  1.00  0.00    -0.388 OA
ATOM    684 'HO2  DC A  28      22.154  85.849  59.163  1.00  0.00     0.210 HD
ATOM    685  C3'  DC A  28      20.899  84.264  57.991  1.00  0.00     0.198 C 
ATOM    686  O3'  DC A  28      20.554  84.394  59.368  1.00  0.00    -0.279 OA
ATOM    687  P    DC A  29      19.085  84.906  59.780  1.00  0.00     0.408 P 
ATOM    688  OP1  DC A  29      18.882  84.562  61.210  1.00  0.00    -0.624 OA
ATOM    689  OP2  DC A  29      18.111  84.427  58.765  1.00  0.00    -0.624 OA
ATOM    690  O5'  DC A  29      19.181  86.493  59.660  1.00  0.00    -0.287 OA
ATOM    691  C5'  DC A  29      20.070  87.237  60.490  1.00  0.00     0.216 C 
ATOM    692  C4'  DC A  29      19.998  88.708  60.148  1.00  0.00     0.180 C 
ATOM    693  O4'  DC A  29      20.510  88.912  58.801  1.00  0.00    -0.353 OA
ATOM    694  C1'  DC A  29      19.761  89.931  58.158  1.00  0.00     0.264 C 
ATOM    695  N1   DC A  29      19.065  89.343  57.002  1.00  0.00    -0.278 N 
ATOM    696  C6   DC A  29      18.817  88.000  56.941  1.00  0.00     0.102 A 
ATOM    697  C2   DC A  29      18.652  90.183  55.967  1.00  0.00     0.352 A 
ATOM    698  O2   DC A  29      18.892  91.395  56.046  1.00  0.00    -0.244 OA
ATOM    699  N3   DC A  29      18.001  89.656  54.906  1.00  0.00    -0.177 NA
ATOM    700  C4   DC A  29      17.764  88.345  54.855  1.00  0.00     0.128 A 
ATOM    701  N4   DC A  29      17.120  87.871  53.789  1.00  0.00    -0.384 N 
ATOM    702  H41  DC A  29      16.921  86.885  53.707  1.00  0.00     0.157 HD
ATOM    703  H42  DC A  29      16.834  88.508  53.058  1.00  0.00     0.157 HD
ATOM    704  C5   DC A  29      18.176  87.462  55.895  1.00  0.00     0.067 A 
ATOM    705  C2'  DC A  29      18.810  90.518  59.199  1.00  0.00     0.199 C 
ATOM    706  O2'  DC A  29      19.473  91.566  59.883  1.00  0.00    -0.388 OA
ATOM    707 'HO2  DC A  29      19.250  91.477  60.810  1.00  0.00     0.210 HD
ATOM    708  C3'  DC A  29      18.603  89.313  60.105  1.00  0.00     0.198 C 
ATOM    709  O3'  DC A  29      18.134  89.678  61.400  1.00  0.00    -0.279 OA
ATOM    710  P    DC A  30      16.552  89.805  61.669  1.00  0.00     0.408 P 
ATOM    711  OP1  DC A  30      16.375  90.192  63.092  1.00  0.00    -0.624 OA
ATOM    712  OP2  DC A  30      15.889  88.580  61.153  1.00  0.00    -0.624 OA
ATOM    713  O5'  DC A  30      16.103  91.032  60.757  1.00  0.00    -0.287 OA
ATOM    714  C5'  DC A  30      16.506  92.365  61.068  1.00  0.00     0.216 C 
ATOM    715  C4'  DC A  30      15.899  93.339  60.086  1.00  0.00     0.180 C 
ATOM    716  O4'  DC A  30      16.433  93.082  58.759  1.00  0.00    -0.353 OA
ATOM    717  C1'  DC A  30      15.439  93.358  57.785  1.00  0.00     0.264 C 
ATOM    718  N1   DC A  30      15.170  92.126  57.024  1.00  0.00    -0.278 N 
ATOM    719  C6   DC A  30      15.460  90.898  57.550  1.00  0.00     0.102 A 
ATOM    720  C2   DC A  30      14.605  92.232  55.751  1.00  0.00     0.352 A 
ATOM    721  O2   DC A  30      14.355  93.357  55.295  1.00  0.00    -0.244 OA
ATOM    722  N3   DC A  30      14.345  91.109  55.047  1.00  0.00    -0.177 NA
ATOM    723  C4   DC A  30      14.630  89.916  55.568  1.00  0.00     0.128 A 
ATOM    724  N4   DC A  30      14.360  88.838  54.833  1.00  0.00    -0.384 N 
ATOM    725  H41  DC A  30      14.560  87.913  55.185  1.00  0.00     0.157 HD
ATOM    726  H42  DC A  30      13.952  88.955  53.915  1.00  0.00     0.157 HD
ATOM    727  C5   DC A  30      15.209  89.776  56.863  1.00  0.00     0.067 A 
ATOM    728  C2'  DC A  30      14.209  93.886  58.526  1.00  0.00     0.199 C 
ATOM    729  O2'  DC A  30      14.303  95.296  58.610  1.00  0.00    -0.388 OA
ATOM    730 'HO2  DC A  30      13.465  95.612  58.951  1.00  0.00     0.210 HD
ATOM    731  C3'  DC A  30      14.393  93.233  59.889  1.00  0.00     0.198 C 
ATOM    732  O3'  DC A  30      13.667  93.898  60.919  1.00  0.00    -0.279 OA
ATOM    733  P    DC A  31      12.158  93.446  61.249  1.00  0.00     0.408 P 
ATOM    734  OP1  DC A  31      11.708  94.224  62.431  1.00  0.00    -0.624 OA
ATOM    735  OP2  DC A  31      12.111  91.961  61.286  1.00  0.00    -0.624 OA
ATOM    736  O5'  DC A  31      11.323  93.935  59.982  1.00  0.00    -0.287 OA
ATOM    737  C5'  DC A  31      10.958  95.305  59.829  1.00  0.00     0.216 C 
ATOM    738  C4'  DC A  31      10.381  95.545  58.452  1.00  0.00     0.180 C 
ATOM    739  O4'  DC A  31      11.230  94.924  57.452  1.00  0.00    -0.353 OA
ATOM    740  C1'  DC A  31      10.435  94.506  56.352  1.00  0.00     0.264 C 
ATOM    741  N1   DC A  31      10.638  93.061  56.146  1.00  0.00    -0.278 N 
ATOM    742  C6   DC A  31      11.215  92.287  57.114  1.00  0.00     0.102 A 
ATOM    743  C2   DC A  31      10.226  92.490  54.939  1.00  0.00     0.352 A 
ATOM    744  O2   DC A  31       9.705  93.213  54.078  1.00  0.00    -0.244 OA
ATOM    745  N3   DC A  31      10.404  91.167  54.739  1.00  0.00    -0.177 NA
ATOM    746  C4   DC A  31      10.970  90.420  55.687  1.00  0.00     0.128 A 
ATOM    747  N4   DC A  31      11.127  89.119  55.442  1.00  0.00    -0.384 N 
ATOM    748  H41  DC A  31      11.550  88.516  56.131  1.00  0.00     0.157 HD
ATOM    749  H42  DC A  31      10.820  88.742  54.555  1.00  0.00     0.157 HD
ATOM    750  C5   DC A  31      11.402  90.974  56.928  1.00  0.00     0.067 A 
ATOM    751  C2'  DC A  31       8.984  94.875  56.667  1.00  0.00     0.199 C 
ATOM    752  O2'  DC A  31       8.711  96.149  56.117  1.00  0.00    -0.388 OA
ATOM    753 'HO2  DC A  31       8.174  96.618  56.756  1.00  0.00     0.210 HD
ATOM    754  C3'  DC A  31       9.017  94.926  58.189  1.00  0.00     0.198 C 
ATOM    755  O3'  DC A  31       7.959  95.710  58.732  1.00  0.00    -0.279 OA
ATOM    756  P    DC A  32       6.559  95.012  59.112  1.00  0.00     0.408 P 
ATOM    757  OP1  DC A  32       5.739  96.022  59.827  1.00  0.00    -0.624 OA
ATOM    758  OP2  DC A  32       6.845  93.707  59.760  1.00  0.00    -0.624 OA
ATOM    759  O5'  DC A  32       5.877  94.725  57.701  1.00  0.00    -0.287 OA
ATOM    760  C5'  DC A  32       5.332  95.787  56.920  1.00  0.00     0.216 C 
ATOM    761  C4'  DC A  32       4.804  95.253  55.608  1.00  0.00     0.180 C 
ATOM    762  O4'  DC A  32       5.878  94.589  54.891  1.00  0.00    -0.353 OA
ATOM    763  C1'  DC A  32       5.347  93.512  54.135  1.00  0.00     0.264 C 
ATOM    764  N1   DC A  32       6.015  92.269  54.553  1.00  0.00    -0.278 N 
ATOM    765  C6   DC A  32       6.684  92.197  55.743  1.00  0.00     0.102 A 
ATOM    766  C2   DC A  32       5.952  91.156  53.712  1.00  0.00     0.352 A 
ATOM    767  O2   DC A  32       5.337  91.246  52.640  1.00  0.00    -0.244 OA
ATOM    768  N3   DC A  32       6.561  90.010  54.086  1.00  0.00    -0.177 NA
ATOM    769  C4   DC A  32       7.217  89.950  55.244  1.00  0.00     0.128 A 
ATOM    770  N4   DC A  32       7.806  88.799  55.565  1.00  0.00    -0.384 N 
ATOM    771  H41  DC A  32       8.314  88.708  56.433  1.00  0.00     0.157 HD
ATOM    772  H42  DC A  32       7.744  88.016  54.929  1.00  0.00     0.157 HD
ATOM    773  C5   DC A  32       7.298  91.069  56.123  1.00  0.00     0.067 A 
ATOM    774  C2'  DC A  32       3.834  93.492  54.358  1.00  0.00     0.199 C 
ATOM    775  O2'  DC A  32       3.214  94.256  53.341  1.00  0.00    -0.388 OA
ATOM    776 'HO2  DC A  32       2.639  94.885  53.779  1.00  0.00     0.210 HD
ATOM    777  C3'  DC A  32       3.727  94.184  55.712  1.00  0.00     0.198 C 
ATOM    778  O3'  DC A  32       2.436  94.744  55.934  1.00  0.00    -0.279 OA
ATOM    779  P    DC A  33       1.264  93.832  56.551  1.00  0.00     0.408 P 
ATOM    780  OP1  DC A  33       0.095  94.716  56.795  1.00  0.00    -0.624 OA
ATOM    781  OP2  DC A  33       1.828  93.037  57.673  1.00  0.00    -0.624 OA
ATOM    782  O5'  DC A  33       0.892  92.826  55.371  1.00  0.00    -0.287 OA
ATOM    783  C5'  DC A  33       0.267  93.293  54.177  1.00  0.00     0.216 C 
ATOM    784  C4'  DC A  33      -0.162  92.124  53.319  1.00  0.00     0.180 C 
ATOM    785  O4'  DC A  33       1.019  91.513  52.729  1.00  0.00    -0.353 OA
ATOM    786  C1'  DC A  33       0.882  90.102  52.730  1.00  0.00     0.264 C 
ATOM    787  N1   DC A  33       1.909  89.535  53.619  1.00  0.00    -0.278 N 
ATOM    788  C6   DC A  33       2.405  90.261  54.666  1.00  0.00     0.102 A 
ATOM    789  C2   DC A  33       2.372  88.241  53.377  1.00  0.00     0.352 A 
ATOM    790  O2   DC A  33       1.901  87.600  52.426  1.00  0.00    -0.244 OA
ATOM    791  N3   DC A  33       3.321  87.717  54.183  1.00  0.00    -0.177 NA
ATOM    792  C4   DC A  33       3.806  88.436  55.196  1.00  0.00     0.128 A 
ATOM    793  N4   DC A  33       4.747  87.880  55.958  1.00  0.00    -0.384 N 
ATOM    794  H41  DC A  33       5.145  88.386  56.735  1.00  0.00     0.157 HD
ATOM    795  H42  DC A  33       5.064  86.943  55.745  1.00  0.00     0.157 HD
ATOM    796  C5   DC A  33       3.348  89.756  55.471  1.00  0.00     0.067 A 
ATOM    797  C2'  DC A  33      -0.549  89.787  53.164  1.00  0.00     0.199 C 
ATOM    798  O2'  DC A  33      -1.380  89.777  52.017  1.00  0.00    -0.388 OA
ATOM    799 'HO2  DC A  33      -1.904  90.579  52.045  1.00  0.00     0.210 HD
ATOM    800  C3'  DC A  33      -0.854  90.984  54.055  1.00  0.00     0.198 C 
ATOM    801  O3'  DC A  33      -2.253  91.219  54.192  1.00  0.00    -0.279 OA
ATOM    802  P    DC A  34      -3.067  90.524  55.393  1.00  0.00     0.408 P 
ATOM    803  OP1  DC A  34      -4.475  90.986  55.304  1.00  0.00    -0.624 OA
ATOM    804  OP2  DC A  34      -2.308  90.723  56.654  1.00  0.00    -0.624 OA
ATOM    805  O5'  DC A  34      -3.032  88.971  55.037  1.00  0.00    -0.287 OA
ATOM    806  C5'  DC A  34      -3.664  88.474  53.858  1.00  0.00     0.216 C 
ATOM    807  C4'  DC A  34      -3.488  86.976  53.763  1.00  0.00     0.180 C 
ATOM    808  O4'  DC A  34      -2.106  86.678  53.447  1.00  0.00    -0.353 OA
ATOM    809  C1'  DC A  34      -1.749  85.435  54.021  1.00  0.00     0.264 C 
ATOM    810  N1   DC A  34      -0.538  85.628  54.834  1.00  0.00    -0.278 N 
ATOM    811  C6   DC A  34      -0.265  86.837  55.411  1.00  0.00     0.102 A 
ATOM    812  C2   DC A  34       0.331  84.550  55.013  1.00  0.00     0.352 A 
ATOM    813  O2   DC A  34       0.063  83.465  54.475  1.00  0.00    -0.244 OA
ATOM    814  N3   DC A  34       1.441  84.713  55.762  1.00  0.00    -0.177 NA
ATOM    815  C4   DC A  34       1.702  85.896  56.320  1.00  0.00     0.128 A 
ATOM    816  N4   DC A  34       2.810  86.007  57.050  1.00  0.00    -0.384 N 
ATOM    817  H41  DC A  34       3.047  86.883  57.491  1.00  0.00     0.157 HD
ATOM    818  H42  DC A  34       3.414  85.202  57.151  1.00  0.00     0.157 HD
ATOM    819  C5   DC A  34       0.837  87.015  56.153  1.00  0.00     0.067 A 
ATOM    820  C2'  DC A  34      -2.946  84.920  54.825  1.00  0.00     0.198 C 
ATOM    821  O2'  DC A  34      -3.662  83.999  54.024  1.00  0.00    -0.388 OA
ATOM    822 'HO2  DC A  34      -4.591  84.108  54.234  1.00  0.00     0.210 HD
ATOM    823  C3'  DC A  34      -3.745  86.200  55.046  1.00  0.00     0.182 C 
ATOM    824  O3'  DC A  34      -5.138  85.945  55.258  1.00  0.00    -0.390 OA
ATOM    825 'HO3  DC A  34      -5.595  86.787  55.174  1.00  0.00     0.210 HD
ENDROOT
TORSDOF 264
ENDMDL
MODEL 3
REMARK VINA RESULT:     -14.0     13.536     31.050
REMARK  0 active torsions:
REMARK  status: ('A' for Active; 'I' for Inactive)
REMARK       I    between atoms: O5'_2  and  C5'_3 
REMARK       I    between atoms: C5'_3  and  C4'_4 
REMARK       I    between atoms: C1'_6  and  N9_9 
REMARK       I    between atoms: C2_18  and  N2_20 
REMARK       I    between atoms: C2'_7  and  O2'_23 
REMARK       I    between atoms: C3'_8  and  O3'_25 
REMARK       I    between atoms: O3'_25  and  P_26 
REMARK       I    between atoms: P_26  and  O5'_29 
REMARK       I    between atoms: O5'_29  and  C5'_30 
REMARK       I    between atoms: C5'_30  and  C4'_31 
REMARK       I    between atoms: C1'_33  and  N9_36 
REMARK       I    between atoms: C2_45  and  N2_47 
REMARK       I    between atoms: C2'_34  and  O2'_50 
REMARK       I    between atoms: C3'_35  and  O3'_52 
REMARK       I    between atoms: O3'_52  and  P_53 
REMARK       I    between atoms: P_53  and  O5'_56 
REMARK       I    between atoms: O5'_56  and  C5'_57 
REMARK       I    between atoms: C5'_57  and  C4'_58 
REMARK       I    between atoms: C1'_60  and  N9_63 
REMARK       I    between atoms: C2_72  and  N2_74 
REMARK       I    between atoms: C2'_61  and  O2'_77 
REMARK       I    between atoms: C3'_62  and  O3'_79 
REMARK       I    between atoms: O3'_79  and  P_80 
REMARK       I    between atoms: P_80  and  O5'_83 
REMARK       I    between atoms: O5'_83  and  C5'_84 
REMARK       I    between atoms: C5'_84  and  C4'_85 
REMARK       I    between atoms: C1'_87  and  N9_90 
REMARK       I    between atoms: C2_99  and  N2_101 
REMARK       I    between atoms: C2'_88  and  O2'_104 
REMARK       I    between atoms: C3'_89  and  O3'_106 
REMARK       I    between atoms: O3'_106  and  P_107 
REMARK       I    between atoms: P_107  and  O5'_110 
REMARK       I    between atoms: O5'_110  and  C5'_111 
REMARK       I    between atoms: C5'_111  and  C4'_112 
REMARK       I    between atoms: C1'_114  and  N9_117 
REMARK       I    between atoms: C2_121  and  N2_128 
REMARK       I    between atoms: C2'_115  and  O2'_131 
REMARK       I    between atoms: C3'_116  and  O3'_133 
REMARK       I    between atoms: O3'_133  and  P_134 
REMARK       I    between atoms: P_134  and  O5'_137 
REMARK       I    between atoms: O5'_137  and  C5'_138 
REMARK       I    between atoms: C5'_138  and  C4'_139 
REMARK       I    between atoms: C1'_141  and  N9_144 
REMARK       I    between atoms: C2_148  and  N2_155 
REMARK       I    between atoms: C2'_142  and  O2'_158 
REMARK       I    between atoms: C3'_143  and  O3'_160 
REMARK       I    between atoms: O3'_160  and  P_161 
REMARK       I    between atoms: P_161  and  O5'_164 
REMARK       I    between atoms: O5'_164  and  C5'_165 
REMARK       I    between atoms: C5'_165  and  C4'_166 
REMARK       I    between atoms: C1'_168  and  N9_171 
REMARK       I    between atoms: C2_175  and  N2_182 
REMARK       I    between atoms: C2'_169  and  O2'_185 
REMARK       I    between atoms: C3'_170  and  O3'_187 
REMARK       I    between atoms: O3'_187  and  P_188 
REMARK       I    between atoms: P_188  and  O5'_191 
REMARK       I    between atoms: O5'_191  and  C5'_192 
REMARK       I    between atoms: C5'_192  and  C4'_193 
REMARK       I    between atoms: C1'_195  and  N1_198 
REMARK       I    between atoms: C2'_196  and  O2'_207 
REMARK       I    between atoms: C3'_197  and  O3'_209 
REMARK       I    between atoms: O3'_209  and  P_210 
REMARK       I    between atoms: P_210  and  O5'_213 
REMARK       I    between atoms: O5'_213  and  C5'_214 
REMARK       I    between atoms: C5'_214  and  C4'_215 
REMARK       I    between atoms: C1'_217  and  N9_220 
REMARK       I    between atoms: C6_226  and  N6_229 
REMARK       I    between atoms: C2'_218  and  O2'_232 
REMARK       I    between atoms: C3'_219  and  O3'_234 
REMARK       I    between atoms: O3'_234  and  P_235 
REMARK       I    between atoms: P_235  and  O5'_238 
REMARK       I    between atoms: O5'_238  and  C5'_239 
REMARK       I    between atoms: C5'_239  and  C4'_240 
REMARK       I    between atoms: C1'_242  and  N9_245 
REMARK       I    between atoms: C2_252  and  N2_256 
REMARK       I    between atoms: C2'_243  and  O2'_259 
REMARK       I    between atoms: C3'_244  and  O3'_261 
REMARK       I    between atoms: O3'_261  and  P_262 
REMARK       I    between atoms: P_262  and  O5'_265 
REMARK       I    between atoms: O5'_265  and  C5'_266 
REMARK       I    between atoms: C5'_266  and  C4'_267 
REMARK       I    between atoms: C1'_270  and  N1_816 
REMARK       I    between atoms: C4_819  and  N4_823 
REMARK       I    between atoms: C2'_269  and  O2'_814 
REMARK       I    between atoms: C3'_268  and  O3'_272 
REMARK       I    between atoms: O3'_272  and  P_273 
REMARK       I    between atoms: P_273  and  O5'_276 
REMARK       I    between atoms: O5'_276  and  C5'_277 
REMARK       I    between atoms: C5'_277  and  C4'_278 
REMARK       I    between atoms: C1'_280  and  N1_283 
REMARK       I    between atoms: C2'_281  and  O2'_292 
REMARK       I    between atoms: C3'_282  and  O3'_294 
REMARK       I    between atoms: O3'_294  and  P_295 
REMARK       I    between atoms: P_295  and  O5'_298 
REMARK       I    between atoms: O5'_298  and  C5'_299 
REMARK       I    between atoms: C5'_299  and  C4'_300 
REMARK       I    between atoms: C1'_302  and  N1_305 
REMARK       I    between atoms: C4_308  and  N4_312 
REMARK       I    between atoms: C2'_303  and  O2'_315 
REMARK       I    between atoms: C3'_304  and  O3'_317 
REMARK       I    between atoms: O3'_317  and  P_318 
REMARK       I    between atoms: P_318  and  O5'_321 
REMARK       I    between atoms: O5'_321  and  C5'_322 
REMARK       I    between atoms: C5'_322  and  C4'_323 
REMARK       I    between atoms: C1'_325  and  N9_328 
REMARK       I    between atoms: C6_332  and  N6_337 
REMARK       I    between atoms: C2'_326  and  O2'_340 
REMARK       I    between atoms: C3'_327  and  O3'_342 
REMARK       I    between atoms: O3'_342  and  P_343 
REMARK       I    between atoms: P_343  and  O5'_346 
REMARK       I    between atoms: O5'_346  and  C5'_347 
REMARK       I    between atoms: C5'_347  and  C4'_348 
REMARK       I    between atoms: C1'_350  and  N9_353 
REMARK       I    between atoms: C2_357  and  N2_364 
REMARK       I    between atoms: C2'_351  and  O2'_367 
REMARK       I    between atoms: C3'_352  and  O3'_369 
REMARK       I    between atoms: O3'_369  and  P_370 
REMARK       I    between atoms: P_370  and  O5'_373 
REMARK       I    between atoms: O5'_373  and  C5'_374 
REMARK       I    between atoms: C5'_374  and  C4'_375 
REMARK       I    between atoms: C1'_378  and  N1_805 
REMARK       I    between atoms: C2'_377  and  O2'_803 
REMARK       I    between atoms: C3'_376  and  O3'_380 
REMARK       I    between atoms: O3'_380  and  P_381 
REMARK       I    between atoms: P_381  and  O5'_384 
REMARK       I    between atoms: O5'_384  and  C5'_385 
REMARK       I    between atoms: C5'_385  and  C4'_386 
REMARK       I    between atoms: C1'_389  and  N1_793 
REMARK       I    between atoms: C4_797  and  N4_800 
REMARK       I    between atoms: C2'_388  and  O2'_791 
REMARK       I    between atoms: C3'_387  and  O3'_391 
REMARK       I    between atoms: O3'_391  and  P_392 
REMARK       I    between atoms: P_392  and  O5'_395 
REMARK       I    between atoms: O5'_395  and  C5'_396 
REMARK       I    between atoms: C5'_396  and  C4'_397 
REMARK       I    between atoms: C1'_400  and  N9_777 
REMARK       I    between atoms: C2_784  and  N2_788 
REMARK       I    between atoms: C2'_399  and  O2'_775 
REMARK       I    between atoms: C3'_398  and  O3'_402 
REMARK       I    between atoms: O3'_402  and  P_403 
REMARK       I    between atoms: P_403  and  O5'_406 
REMARK       I    between atoms: O5'_406  and  C5'_407 
REMARK       I    between atoms: C5'_407  and  C4'_408 
REMARK       I    between atoms: C1'_410  and  N9_413 
REMARK       I    between atoms: C6_417  and  N6_422 
REMARK       I    between atoms: C2'_411  and  O2'_425 
REMARK       I    between atoms: C3'_412  and  O3'_427 
REMARK       I    between atoms: O3'_427  and  P_428 
REMARK       I    between atoms: P_428  and  O5'_431 
REMARK       I    between atoms: O5'_431  and  C5'_432 
REMARK       I    between atoms: C5'_432  and  C4'_433 
REMARK       I    between atoms: C1'_436  and  N1_766 
REMARK       I    between atoms: C2'_435  and  O2'_764 
REMARK       I    between atoms: C3'_434  and  O3'_438 
REMARK       I    between atoms: O3'_438  and  P_439 
REMARK       I    between atoms: P_439  and  O5'_442 
REMARK       I    between atoms: O5'_442  and  C5'_443 
REMARK       I    between atoms: C5'_443  and  C4'_444 
REMARK       I    between atoms: C1'_447  and  N1_754 
REMARK       I    between atoms: C4_758  and  N4_761 
REMARK       I    between atoms: C2'_446  and  O2'_752 
REMARK       I    between atoms: C3'_445  and  O3'_449 
REMARK       I    between atoms: O3'_449  and  P_450 
REMARK       I    between atoms: P_450  and  O5'_453 
REMARK       I    between atoms: O5'_453  and  C5'_454 
REMARK       I    between atoms: C5'_454  and  C4'_455 
REMARK       I    between atoms: C1'_457  and  N1_460 
REMARK       I    between atoms: C4_463  and  N4_467 
REMARK       I    between atoms: C2'_458  and  O2'_470 
REMARK       I    between atoms: C3'_459  and  O3'_472 
REMARK       I    between atoms: O3'_472  and  P_473 
REMARK       I    between atoms: P_473  and  O5'_476 
REMARK       I    between atoms: O5'_476  and  C5'_477 
REMARK       I    between atoms: C5'_477  and  C4'_478 
REMARK       I    between atoms: C1'_481  and  N1_742 
REMARK       I    between atoms: C4_746  and  N4_749 
REMARK       I    between atoms: C2'_480  and  O2'_740 
REMARK       I    between atoms: C3'_479  and  O3'_483 
REMARK       I    between atoms: O3'_483  and  P_484 
REMARK       I    between atoms: P_484  and  O5'_487 
REMARK       I    between atoms: O5'_487  and  C5'_488 
REMARK       I    between atoms: C5'_488  and  C4'_489 
REMARK       I    between atoms: C1'_491  and  N9_494 
REMARK       I    between atoms: C2_504  and  N2_505 
REMARK       I    between atoms: C2'_492  and  O2'_508 
REMARK       I    between atoms: C3'_493  and  O3'_510 
REMARK       I    between atoms: O3'_510  and  P_511 
REMARK       I    between atoms: P_511  and  O5'_514 
REMARK       I    between atoms: O5'_514  and  C5'_515 
REMARK       I    between atoms: C5'_515  and  C4'_516 
REMARK       I    between atoms: C1'_519  and  N1_730 
REMARK       I    between atoms: C4_734  and  N4_737 
REMARK       I    between atoms: C2'_518  and  O2'_728 
REMARK       I    between atoms: C3'_517  and  O3'_521 
REMARK       I    between atoms: O3'_521  and  P_522 
REMARK       I    between atoms: P_522  and  O5'_525 
REMARK       I    between atoms: O5'_525  and  C5'_526 
REMARK       I    between atoms: C5'_526  and  C4'_527 
REMARK       I    between atoms: C1'_530  and  N1_719 
REMARK       I    between atoms: C2'_529  and  O2'_717 
REMARK       I    between atoms: C3'_528  and  O3'_532 
REMARK       I    between atoms: O3'_532  and  P_533 
REMARK       I    between atoms: P_533  and  O5'_536 
REMARK       I    between atoms: O5'_536  and  C5'_537 
REMARK       I    between atoms: C5'_537  and  C4'_538 
REMARK       I    between atoms: C1'_541  and  N1_708 
REMARK       I    between atoms: C2'_540  and  O2'_706 
REMARK       I    between atoms: C3'_539  and  O3'_543 
REMARK       I    between atoms: O3'_543  and  P_544 
REMARK       I    between atoms: P_544  and  O5'_547 
REMARK       I    between atoms: O5'_547  and  C5'_548 
REMARK       I    between atoms: C5'_548  and  C4'_549 
REMARK       I    between atoms: C1'_552  and  N1_696 
REMARK       I    between atoms: C4_700  and  N4_703 
REMARK       I    between atoms: C2'_551  and  O2'_694 
REMARK       I    between atoms: C3'_550  and  O3'_554 
REMARK       I    between atoms: O3'_554  and  P_555 
REMARK       I    between atoms: P_555  and  O5'_558 
REMARK       I    between atoms: O5'_558  and  C5'_559 
REMARK       I    between atoms: C5'_559  and  C4'_560 
REMARK       I    between atoms: C1'_563  and  N1_684 
REMARK       I    between atoms: C4_687  and  N4_691 
REMARK       I    between atoms: C2'_562  and  O2'_682 
REMARK       I    between atoms: C3'_561  and  O3'_565 
REMARK       I    between atoms: O3'_565  and  P_566 
REMARK       I    between atoms: P_566  and  O5'_569 
REMARK       I    between atoms: O5'_569  and  C5'_570 
REMARK       I    between atoms: C5'_570  and  C4'_571 
REMARK       I    between atoms: C1'_574  and  N1_672 
REMARK       I    between atoms: C4_675  and  N4_679 
REMARK       I    between atoms: C2'_573  and  O2'_670 
REMARK       I    between atoms: C3'_572  and  O3'_576 
REMARK       I    between atoms: O3'_576  and  P_577 
REMARK       I    between atoms: P_577  and  O5'_580 
REMARK       I    between atoms: O5'_580  and  C5'_581 
REMARK       I    between atoms: C5'_581  and  C4'_582 
REMARK       I    between atoms: C1'_584  and  N1_587 
REMARK       I    between atoms: C4_590  and  N4_594 
REMARK       I    between atoms: C2'_585  and  O2'_597 
REMARK       I    between atoms: C3'_586  and  O3'_599 
REMARK       I    between atoms: O3'_599  and  P_600 
REMARK       I    between atoms: P_600  and  O5'_603 
REMARK       I    between atoms: O5'_603  and  C5'_604 
REMARK       I    between atoms: C5'_604  and  C4'_605 
REMARK       I    between atoms: C1'_607  and  N1_610 
REMARK       I    between atoms: C4_613  and  N4_617 
REMARK       I    between atoms: C2'_608  and  O2'_620 
REMARK       I    between atoms: C3'_609  and  O3'_622 
REMARK       I    between atoms: O3'_622  and  P_623 
REMARK       I    between atoms: P_623  and  O5'_626 
REMARK       I    between atoms: O5'_626  and  C5'_627 
REMARK       I    between atoms: C5'_627  and  C4'_628 
REMARK       I    between atoms: C1'_631  and  N1_660 
REMARK       I    between atoms: C4_663  and  N4_667 
REMARK       I    between atoms: C2'_630  and  O2'_658 
REMARK       I    between atoms: C3'_629  and  O3'_633 
REMARK       I    between atoms: O3'_633  and  P_634 
REMARK       I    between atoms: P_634  and  O5'_637 
REMARK       I    between atoms: O5'_637  and  C5'_638 
REMARK       I    between atoms: C5'_638  and  C4'_639 
REMARK       I    between atoms: C1'_641  and  N1_644 
REMARK       I    between atoms: C4_647  and  N4_651 
REMARK       I    between atoms: C2'_642  and  O2'_654 
REMARK       I    between atoms: C3'_643  and  O3'_656 
ROOT
ATOM      1 'HO5  DG A   1       0.246  79.131  59.522  1.00  0.00     0.209 HD
ATOM      2  O5'  DG A   1       1.078  78.664  59.407  1.00  0.00    -0.398 OA
ATOM      3  C5'  DG A   1       1.370  78.679  58.007  1.00  0.00     0.198 C 
ATOM      4  C4'  DG A   1       0.114  78.900  57.193  1.00  0.00     0.180 C 
ATOM      5  O4'  DG A   1      -0.737  79.850  57.892  1.00  0.00    -0.353 OA
ATOM      6  C1'  DG A   1      -1.298  80.765  56.967  1.00  0.00     0.262 C 
ATOM      7  N9   DG A   1      -0.764  82.094  57.255  1.00  0.00    -0.293 N 
ATOM      8  C4   DG A   1      -1.146  83.275  56.664  1.00  0.00     0.187 A 
ATOM      9  N3   DG A   1      -2.085  83.417  55.705  1.00  0.00    -0.044 NA
ATOM     10  C2   DG A   1      -2.229  84.679  55.340  1.00  0.00     0.703 A 
ATOM     11  N2   DG A   1      -3.116  85.003  54.395  1.00  0.00    -0.233 N 
ATOM     12  H21  DG A   1      -3.675  84.283  53.964  1.00  0.00     0.174 HD
ATOM     13  H22  DG A   1      -3.222  85.969  54.119  1.00  0.00     0.174 HD
ATOM     14  N1   DG A   1      -1.512  85.718  55.873  1.00  0.00    -0.153 N 
ATOM     15  H1   DG A   1      -1.702  86.644  55.523  1.00  0.00     0.187 HD
ATOM     16  C6   DG A   1      -0.540  85.597  56.858  1.00  0.00     0.292 A 
ATOM     17  O6   DG A   1       0.051  86.604  57.267  1.00  0.00    -0.265 OA
ATOM     18  C5   DG A   1      -0.372  84.248  57.261  1.00  0.00     0.173 A 
ATOM     19  N7   DG A   1       0.480  83.692  58.206  1.00  0.00    -0.234 NA
ATOM     20  C8   DG A   1       0.212  82.415  58.167  1.00  0.00     0.214 A 
ATOM     21  C2'  DG A   1      -0.969  80.261  55.563  1.00  0.00     0.199 C 
ATOM     22  O2'  DG A   1      -1.998  79.383  55.146  1.00  0.00    -0.388 OA
ATOM     23 'HO2  DG A   1      -1.703  78.977  54.332  1.00  0.00     0.210 HD
ATOM     24  C3'  DG A   1       0.333  79.509  55.814  1.00  0.00     0.198 C 
ATOM     25  O3'  DG A   1       0.574  78.506  54.830  1.00  0.00    -0.279 OA
ATOM     26  P    DG A   2       1.574  78.809  53.608  1.00  0.00     0.408 P 
ATOM     27  OP1  DG A   2       0.786  78.692  52.355  1.00  0.00    -0.624 OA
ATOM     28  OP2  DG A   2       2.787  77.974  53.793  1.00  0.00    -0.624 OA
ATOM     29  O5'  DG A   2       1.980  80.336  53.815  1.00  0.00    -0.287 OA
ATOM     30  C5'  DG A   2       2.472  81.126  52.732  1.00  0.00     0.216 C 
ATOM     31  C4'  DG A   2       1.326  81.586  51.856  1.00  0.00     0.180 C 
ATOM     32  O4'  DG A   2       0.268  82.109  52.710  1.00  0.00    -0.353 OA
ATOM     33  C1'  DG A   2      -0.106  83.399  52.268  1.00  0.00     0.262 C 
ATOM     34  N9   DG A   2       0.501  84.382  53.160  1.00  0.00    -0.293 N 
ATOM     35  C4   DG A   2       0.420  85.751  53.056  1.00  0.00     0.187 A 
ATOM     36  N3   DG A   2      -0.249  86.438  52.104  1.00  0.00    -0.044 NA
ATOM     37  C2   DG A   2      -0.135  87.745  52.270  1.00  0.00     0.703 A 
ATOM     38  N2   DG A   2      -0.735  88.580  51.415  1.00  0.00    -0.233 N 
ATOM     39  H21  DG A   2      -1.273  88.204  50.647  1.00  0.00     0.174 HD
ATOM     40  H22  DG A   2      -0.650  89.579  51.534  1.00  0.00     0.174 HD
ATOM     41  N1   DG A   2       0.577  88.331  53.283  1.00  0.00    -0.153 N 
ATOM     42  H1   DG A   2       0.601  89.339  53.317  1.00  0.00     0.187 HD
ATOM     43  C6   DG A   2       1.271  87.647  54.273  1.00  0.00     0.292 A 
ATOM     44  O6   DG A   2       1.881  88.278  55.144  1.00  0.00    -0.265 OA
ATOM     45  C5   DG A   2       1.160  86.242  54.112  1.00  0.00     0.173 A 
ATOM     46  N7   DG A   2       1.690  85.204  54.867  1.00  0.00    -0.234 NA
ATOM     47  C8   DG A   2       1.272  84.124  54.267  1.00  0.00     0.214 A 
ATOM     48  C2'  DG A   2       0.359  83.503  50.820  1.00  0.00     0.199 C 
ATOM     49  O2'  DG A   2      -0.589  82.860  49.988  1.00  0.00    -0.388 OA
ATOM     50 'HO2  DG A   2      -0.177  82.059  49.662  1.00  0.00     0.210 HD
ATOM     51  C3'  DG A   2       1.663  82.717  50.888  1.00  0.00     0.198 C 
ATOM     52  O3'  DG A   2       2.063  82.213  49.615  1.00  0.00    -0.279 OA
ATOM     53  P    DG A   3       3.330  82.858  48.860  1.00  0.00     0.408 P 
ATOM     54  OP1  DG A   3       3.545  82.081  47.613  1.00  0.00    -0.624 OA
ATOM     55  OP2  DG A   3       4.439  82.998  49.837  1.00  0.00    -0.624 OA
ATOM     56  O5'  DG A   3       2.835  84.317  48.453  1.00  0.00    -0.287 OA
ATOM     57  C5'  DG A   3       1.808  84.499  47.479  1.00  0.00     0.216 C 
ATOM     58  C4'  DG A   3       1.485  85.967  47.330  1.00  0.00     0.180 C 
ATOM     59  O4'  DG A   3       0.986  86.471  48.597  1.00  0.00    -0.353 OA
ATOM     60  C1'  DG A   3       1.436  87.799  48.793  1.00  0.00     0.262 C 
ATOM     61  N9   DG A   3       2.232  87.841  50.016  1.00  0.00    -0.293 N 
ATOM     62  C4   DG A   3       2.746  88.965  50.617  1.00  0.00     0.187 A 
ATOM     63  N3   DG A   3       2.608  90.231  50.175  1.00  0.00    -0.044 NA
ATOM     64  C2   DG A   3       3.214  91.098  50.966  1.00  0.00     0.703 A 
ATOM     65  N2   DG A   3       3.178  92.400  50.672  1.00  0.00    -0.233 N 
ATOM     66  H21  DG A   3       2.685  92.702  49.845  1.00  0.00     0.174 HD
ATOM     67  H22  DG A   3       3.639  93.073  51.266  1.00  0.00     0.174 HD
ATOM     68  N1   DG A   3       3.899  90.752  52.102  1.00  0.00    -0.153 N 
ATOM     69  H1   DG A   3       4.325  91.493  52.634  1.00  0.00     0.187 HD
ATOM     70  C6   DG A   3       4.056  89.455  52.578  1.00  0.00     0.292 A 
ATOM     71  O6   DG A   3       4.694  89.256  53.618  1.00  0.00    -0.265 OA
ATOM     72  C5   DG A   3       3.411  88.510  51.736  1.00  0.00     0.173 A 
ATOM     73  N7   DG A   3       3.319  87.128  51.837  1.00  0.00    -0.234 NA
ATOM     74  C8   DG A   3       2.614  86.777  50.797  1.00  0.00     0.214 A 
ATOM     75  C2'  DG A   3       2.211  88.219  47.542  1.00  0.00     0.199 C 
ATOM     76  O2'  DG A   3       1.318  88.850  46.643  1.00  0.00    -0.388 OA
ATOM     77 'HO2  DG A   3       1.439  88.419  45.797  1.00  0.00     0.210 HD
ATOM     78  C3'  DG A   3       2.665  86.870  47.000  1.00  0.00     0.198 C 
ATOM     79  O3'  DG A   3       2.916  86.906  45.598  1.00  0.00    -0.279 OA
ATOM     80  P    DG A   4       4.370  87.332  45.057  1.00  0.00     0.408 P 
ATOM     81  OP1  DG A   4       4.249  87.545  43.592  1.00  0.00    -0.624 OA
ATOM     82  OP2  DG A   4       5.366  86.361  45.576  1.00  0.00    -0.624 OA
ATOM     83  O5'  DG A   4       4.643  88.743  45.745  1.00  0.00    -0.287 OA
ATOM     84  C5'  DG A   4       3.991  89.926  45.286  1.00  0.00     0.216 C 
ATOM     85  C4'  DG A   4       4.660  91.149  45.867  1.00  0.00     0.180 C 
ATOM     86  O4'  DG A   4       4.492  91.148  47.303  1.00  0.00    -0.353 OA
ATOM     87  C1'  DG A   4       5.544  91.885  47.893  1.00  0.00     0.262 C 
ATOM     88  N9   DG A   4       6.035  91.143  49.050  1.00  0.00    -0.293 N 
ATOM     89  C4   DG A   4       6.678  91.674  50.140  1.00  0.00     0.187 A 
ATOM     90  N3   DG A   4       6.965  92.978  50.331  1.00  0.00    -0.044 NA
ATOM     91  C2   DG A   4       7.589  93.183  51.475  1.00  0.00     0.703 A 
ATOM     92  N2   DG A   4       7.948  94.423  51.817  1.00  0.00    -0.233 N 
ATOM     93  H21  DG A   4       7.733  95.185  51.191  1.00  0.00     0.174 HD
ATOM     94  H22  DG A   4       8.430  94.596  52.688  1.00  0.00     0.174 HD
ATOM     95  N1   DG A   4       7.906  92.190  52.367  1.00  0.00    -0.153 N 
ATOM     96  H1   DG A   4       8.385  92.455  53.212  1.00  0.00     0.187 HD
ATOM     97  C6   DG A   4       7.619  90.841  52.195  1.00  0.00     0.292 A 
ATOM     98  O6   DG A   4       7.949  90.028  53.067  1.00  0.00    -0.265 OA
ATOM     99  C5   DG A   4       6.948  90.603  50.964  1.00  0.00     0.173 A 
ATOM    100  N7   DG A   4       6.486  89.419  50.403  1.00  0.00    -0.234 NA
ATOM    101  C8   DG A   4       5.954  89.789  49.270  1.00  0.00     0.214 A 
ATOM    102  C2'  DG A   4       6.617  92.137  46.826  1.00  0.00     0.199 C 
ATOM    103  O2'  DG A   4       6.557  93.498  46.444  1.00  0.00    -0.388 OA
ATOM    104 'HO2  DG A   4       7.464  93.794  46.334  1.00  0.00     0.210 HD
ATOM    105  C3'  DG A   4       6.168  91.219  45.686  1.00  0.00     0.198 C 
ATOM    106  O3'  DG A   4       6.504  91.740  44.402  1.00  0.00    -0.279 OA
ATOM    107  P    DG A   5       8.034  91.735  43.910  1.00  0.00     0.408 P 
ATOM    108  OP1  DG A   5       8.047  92.234  42.513  1.00  0.00    -0.624 OA
ATOM    109  OP2  DG A   5       8.624  90.408  44.222  1.00  0.00    -0.624 OA
ATOM    110  O5'  DG A   5       8.740  92.832  44.829  1.00  0.00    -0.287 OA
ATOM    111  C5'  DG A   5       9.924  92.528  45.563  1.00  0.00     0.216 C 
ATOM    112  C4'  DG A   5      10.379  93.741  46.338  1.00  0.00     0.180 C 
ATOM    113  O4'  DG A   5       9.574  93.852  47.545  1.00  0.00    -0.353 OA
ATOM    114  C1'  DG A   5      10.406  94.164  48.648  1.00  0.00     0.262 C 
ATOM    115  N9   DG A   5      10.446  93.005  49.536  1.00  0.00    -0.293 N 
ATOM    116  C4   DG A   5      11.085  92.926  50.751  1.00  0.00     0.187 A 
ATOM    117  N3   DG A   5      11.789  93.913  51.342  1.00  0.00    -0.044 NA
ATOM    118  C2   DG A   5      12.287  93.533  52.506  1.00  0.00     0.703 A 
ATOM    119  N2   DG A   5      13.018  94.388  53.225  1.00  0.00    -0.233 N 
ATOM    120  H21  DG A   5      13.182  95.320  52.871  1.00  0.00     0.174 HD
ATOM    121  H22  DG A   5      13.403  94.104  54.115  1.00  0.00     0.174 HD
ATOM    122  N1   DG A   5      12.107  92.288  53.049  1.00  0.00    -0.153 N 
ATOM    123  H1   DG A   5      12.532  92.102  53.944  1.00  0.00     0.187 HD
ATOM    124  C6   DG A   5      11.385  91.257  52.461  1.00  0.00     0.292 A 
ATOM    125  O6   DG A   5      11.282  90.169  53.042  1.00  0.00    -0.265 OA
ATOM    126  C5   DG A   5      10.845  91.647  51.207  1.00  0.00     0.173 A 
ATOM    127  N7   DG A   5      10.071  90.937  50.299  1.00  0.00    -0.234 NA
ATOM    128  C8   DG A   5       9.859  91.781  49.327  1.00  0.00     0.214 A 
ATOM    129  C2'  DG A   5      11.771  94.553  48.084  1.00  0.00     0.199 C 
ATOM    130  O2'  DG A   5      11.756  95.932  47.759  1.00  0.00    -0.388 OA
ATOM    131 'HO2  DG A   5      12.229  96.023  46.931  1.00  0.00     0.210 HD
ATOM    132  C3'  DG A   5      11.820  93.693  46.828  1.00  0.00     0.198 C 
ATOM    133  O3'  DG A   5      12.721  94.205  45.849  1.00  0.00    -0.279 OA
ATOM    134  P    DG A   6      14.163  93.518  45.650  1.00  0.00     0.408 P 
ATOM    135  OP1  DG A   6      14.807  94.175  44.484  1.00  0.00    -0.624 OA
ATOM    136  OP2  DG A   6      13.985  92.044  45.654  1.00  0.00    -0.624 OA
ATOM    137  O5'  DG A   6      14.970  93.929  46.961  1.00  0.00    -0.287 OA
ATOM    138  C5'  DG A   6      15.200  95.300  47.280  1.00  0.00     0.216 C 
ATOM    139  C4'  DG A   6      16.151  95.412  48.450  1.00  0.00     0.180 C 
ATOM    140  O4'  DG A   6      15.406  95.218  49.684  1.00  0.00    -0.353 OA
ATOM    141  C1'  DG A   6      16.211  94.523  50.621  1.00  0.00     0.262 C 
ATOM    142  N9   DG A   6      15.558  93.261  50.951  1.00  0.00    -0.293 N 
ATOM    143  C4   DG A   6      15.855  92.448  52.016  1.00  0.00     0.187 A 
ATOM    144  N3   DG A   6      16.795  92.684  52.954  1.00  0.00    -0.044 NA
ATOM    145  C2   DG A   6      16.854  91.715  53.847  1.00  0.00     0.703 A 
ATOM    146  N2   DG A   6      17.735  91.790  54.848  1.00  0.00    -0.233 N 
ATOM    147  H21  DG A   6      18.349  92.588  54.910  1.00  0.00     0.174 HD
ATOM    148  H22  DG A   6      17.788  91.051  55.536  1.00  0.00     0.174 HD
ATOM    149  N1   DG A   6      16.054  90.603  53.828  1.00  0.00    -0.153 N 
ATOM    150  H1   DG A   6      16.183  89.922  54.560  1.00  0.00     0.187 HD
ATOM    151  C6   DG A   6      15.077  90.338  52.875  1.00  0.00     0.292 A 
ATOM    152  O6   DG A   6      14.407  89.301  52.953  1.00  0.00    -0.265 OA
ATOM    153  C5   DG A   6      15.003  91.370  51.904  1.00  0.00     0.173 A 
ATOM    154  N7   DG A   6      14.179  91.507  50.793  1.00  0.00    -0.234 NA
ATOM    155  C8   DG A   6      14.544  92.642  50.263  1.00  0.00     0.214 A 
ATOM    156  C2'  DG A   6      17.594  94.334  49.997  1.00  0.00     0.199 C 
ATOM    157  O2'  DG A   6      18.413  95.429  50.363  1.00  0.00    -0.388 OA
ATOM    158 'HO2  DG A   6      19.258  95.060  50.624  1.00  0.00     0.210 HD
ATOM    159  C3'  DG A   6      17.254  94.364  48.511  1.00  0.00     0.198 C 
ATOM    160  O3'  DG A   6      18.373  94.722  47.706  1.00  0.00    -0.279 OA
ATOM    161  P    DG A   7      19.510  93.631  47.389  1.00  0.00     0.408 P 
ATOM    162  OP1  DG A   7      20.654  94.347  46.765  1.00  0.00    -0.624 OA
ATOM    163  OP2  DG A   7      18.875  92.499  46.667  1.00  0.00    -0.624 OA
ATOM    164  O5'  DG A   7      19.966  93.111  48.827  1.00  0.00    -0.287 OA
ATOM    165  C5'  DG A   7      21.214  93.509  49.394  1.00  0.00     0.216 C 
ATOM    166  C4'  DG A   7      21.261  93.159  50.867  1.00  0.00     0.180 C 
ATOM    167  O4'  DG A   7      19.943  92.758  51.320  1.00  0.00    -0.353 OA
ATOM    168  C1'  DG A   7      20.069  91.822  52.376  1.00  0.00     0.262 C 
ATOM    169  N9   DG A   7      19.280  90.640  52.041  1.00  0.00    -0.293 N 
ATOM    170  C4   DG A   7      19.195  89.478  52.773  1.00  0.00     0.187 A 
ATOM    171  N3   DG A   7      19.829  89.224  53.937  1.00  0.00    -0.044 NA
ATOM    172  C2   DG A   7      19.549  88.017  54.398  1.00  0.00     0.703 A 
ATOM    173  N2   DG A   7      20.093  87.603  55.545  1.00  0.00    -0.233 N 
ATOM    174  H21  DG A   7      20.716  88.218  56.050  1.00  0.00     0.174 HD
ATOM    175  H22  DG A   7      19.886  86.681  55.901  1.00  0.00     0.174 HD
ATOM    176  N1   DG A   7      18.715  87.129  53.770  1.00  0.00    -0.153 N 
ATOM    177  H1   DG A   7      18.576  86.234  54.212  1.00  0.00     0.187 HD
ATOM    178  C6   DG A   7      18.050  87.366  52.572  1.00  0.00     0.292 A 
ATOM    179  O6   DG A   7      17.317  86.492  52.092  1.00  0.00    -0.265 OA
ATOM    180  C5   DG A   7      18.340  88.661  52.062  1.00  0.00     0.173 A 
ATOM    181  N7   DG A   7      17.895  89.295  50.909  1.00  0.00    -0.234 NA
ATOM    182  C8   DG A   7      18.478  90.462  50.940  1.00  0.00     0.214 A 
ATOM    183  C2'  DG A   7      21.560  91.527  52.572  1.00  0.00     0.199 C 
ATOM    184  O2'  DG A   7      22.045  92.334  53.630  1.00  0.00    -0.388 OA
ATOM    185 'HO2  DG A   7      22.864  92.724  53.322  1.00  0.00     0.210 HD
ATOM    186  C3'  DG A   7      22.142  91.974  51.234  1.00  0.00     0.198 C 
ATOM    187  O3'  DG A   7      23.513  92.352  51.341  1.00  0.00    -0.279 OA
ATOM    188  P    DT A   8      24.656  91.401  50.728  1.00  0.00     0.408 P 
ATOM    189  OP1  DT A   8      25.968  91.947  51.159  1.00  0.00    -0.624 OA
ATOM    190  OP2  DT A   8      24.380  91.215  49.280  1.00  0.00    -0.624 OA
ATOM    191  O5'  DT A   8      24.429  90.003  51.459  1.00  0.00    -0.287 OA
ATOM    192  C5'  DT A   8      24.774  89.824  52.832  1.00  0.00     0.216 C 
ATOM    193  C4'  DT A   8      24.592  88.377  53.229  1.00  0.00     0.180 C 
ATOM    194  O4'  DT A   8      23.173  88.118  53.413  1.00  0.00    -0.353 OA
ATOM    195  C1'  DT A   8      22.838  86.862  52.853  1.00  0.00     0.264 C 
ATOM    196  N1   DT A   8      21.937  87.091  51.713  1.00  0.00    -0.280 N 
ATOM    197  C6   DT A   8      22.111  88.169  50.875  1.00  0.00     0.104 A 
ATOM    198  C2   DT A   8      20.911  86.186  51.508  1.00  0.00     0.331 A 
ATOM    199  O2   DT A   8      20.724  85.221  52.227  1.00  0.00    -0.246 OA
ATOM    200  N3   DT A   8      20.111  86.454  50.429  1.00  0.00    -0.275 N 
ATOM    201  H3   DT A   8      19.345  85.818  50.270  1.00  0.00     0.173 HD
ATOM    202  C4   DT A   8      20.229  87.508  49.548  1.00  0.00     0.250 A 
ATOM    203  O4   DT A   8      19.445  87.599  48.606  1.00  0.00    -0.268 OA
ATOM    204  C5   DT A   8      21.311  88.397  49.829  1.00  0.00     0.092 A 
ATOM    205  C2'  DT A   8      24.144  86.165  52.471  1.00  0.00     0.199 C 
ATOM    206  O2'  DT A   8      24.603  85.420  53.583  1.00  0.00    -0.388 OA
ATOM    207 'HO2  DT A   8      25.560  85.408  53.543  1.00  0.00     0.210 HD
ATOM    208  C3'  DT A   8      25.049  87.359  52.192  1.00  0.00     0.198 C 
ATOM    209  O3'  DT A   8      26.431  87.049  52.353  1.00  0.00    -0.279 OA
ATOM    210  P    DA A   9      27.278  86.485  51.108  1.00  0.00     0.408 P 
ATOM    211  OP1  DA A   9      28.543  87.261  51.052  1.00  0.00    -0.624 OA
ATOM    212  OP2  DA A   9      26.400  86.426  49.911  1.00  0.00    -0.624 OA
ATOM    213  O5'  DA A   9      27.633  84.991  51.533  1.00  0.00    -0.287 OA
ATOM    214  C5'  DA A   9      28.405  84.723  52.704  1.00  0.00     0.216 C 
ATOM    215  C4'  DA A   9      28.330  83.253  53.052  1.00  0.00     0.180 C 
ATOM    216  O4'  DA A   9      26.978  82.944  53.493  1.00  0.00    -0.353 OA
ATOM    217  C1'  DA A   9      26.554  81.720  52.917  1.00  0.00     0.262 C 
ATOM    218  N9   DA A   9      25.501  82.009  51.944  1.00  0.00    -0.294 N 
ATOM    219  C4   DA A   9      24.577  81.119  51.451  1.00  0.00     0.167 A 
ATOM    220  N3   DA A   9      24.448  79.819  51.765  1.00  0.00    -0.222 NA
ATOM    221  C2   DA A   9      23.442  79.269  51.087  1.00  0.00     0.237 A 
ATOM    222  N1   DA A   9      22.612  79.830  50.198  1.00  0.00    -0.222 NA
ATOM    223  C6   DA A   9      22.768  81.139  49.907  1.00  0.00     0.155 A 
ATOM    224  N6   DA A   9      21.942  81.698  49.023  1.00  0.00    -0.382 N 
ATOM    225  H61  DA A   9      22.041  82.676  48.792  1.00  0.00     0.157 HD
ATOM    226  H62  DA A   9      21.217  81.147  48.583  1.00  0.00     0.157 HD
ATOM    227  C5   DA A   9      23.801  81.837  50.559  1.00  0.00     0.149 A 
ATOM    228  N7   DA A   9      24.225  83.157  50.491  1.00  0.00    -0.236 NA
ATOM    229  C8   DA A   9      25.231  83.207  51.330  1.00  0.00     0.214 A 
ATOM    230  C2'  DA A   9      27.791  81.064  52.305  1.00  0.00     0.199 C 
ATOM    231  O2'  DA A   9      28.458  80.321  53.310  1.00  0.00    -0.388 OA
ATOM    232 'HO2  DA A   9      29.349  80.166  52.997  1.00  0.00     0.210 HD
ATOM    233  C3'  DA A   9      28.594  82.293  51.899  1.00  0.00     0.198 C 
ATOM    234  O3'  DA A   9      29.984  82.013  51.750  1.00  0.00    -0.279 OA
ATOM    235  P    DG A  10      30.566  81.611  50.304  1.00  0.00     0.408 P 
ATOM    236  OP1  DG A  10      32.045  81.541  50.426  1.00  0.00    -0.624 OA
ATOM    237  OP2  DG A  10      29.958  82.505  49.286  1.00  0.00    -0.624 OA
ATOM    238  O5'  DG A  10      30.020  80.134  50.064  1.00  0.00    -0.287 OA
ATOM    239  C5'  DG A  10      30.565  79.027  50.779  1.00  0.00     0.216 C 
ATOM    240  C4'  DG A  10      29.868  77.748  50.377  1.00  0.00     0.180 C 
ATOM    241  O4'  DG A  10      28.439  77.901  50.562  1.00  0.00    -0.353 OA
ATOM    242  C1'  DG A  10      27.756  77.074  49.639  1.00  0.00     0.262 C 
ATOM    243  N9   DG A  10      26.763  77.884  48.940  1.00  0.00    -0.293 N 
ATOM    244  C4   DG A  10      25.652  77.417  48.283  1.00  0.00     0.187 A 
ATOM    245  N3   DG A  10      25.284  76.123  48.174  1.00  0.00    -0.044 NA
ATOM    246  C2   DG A  10      24.169  75.986  47.482  1.00  0.00     0.703 A 
ATOM    247  N2   DG A  10      23.667  74.766  47.280  1.00  0.00    -0.233 N 
ATOM    248  H21  DG A  10      24.150  73.966  47.662  1.00  0.00     0.174 HD
ATOM    249  H22  DG A  10      22.815  74.643  46.751  1.00  0.00     0.174 HD
ATOM    250  N1   DG A  10      23.467  77.031  46.939  1.00  0.00    -0.153 N 
ATOM    251  H1   DG A  10      22.625  76.812  46.427  1.00  0.00     0.187 HD
ATOM    252  C6   DG A  10      23.824  78.370  47.039  1.00  0.00     0.292 A 
ATOM    253  O6   DG A  10      23.116  79.236  46.512  1.00  0.00    -0.265 OA
ATOM    254  C5   DG A  10      25.024  78.537  47.781  1.00  0.00     0.173 A 
ATOM    255  N7   DG A  10      25.727  79.687  48.114  1.00  0.00    -0.234 NA
ATOM    256  C8   DG A  10      26.748  79.251  48.801  1.00  0.00     0.214 A 
ATOM    257  C2'  DG A  10      28.794  76.440  48.707  1.00  0.00     0.199 C 
ATOM    258  O2'  DG A  10      29.065  75.128  49.161  1.00  0.00    -0.388 OA
ATOM    259 'HO2  DG A  10      29.317  74.616  48.390  1.00  0.00     0.210 HD
ATOM    260  C3'  DG A  10      29.998  77.355  48.914  1.00  0.00     0.198 C 
ATOM    261  O3'  DG A  10      31.237  76.694  48.663  1.00  0.00    -0.279 OA
ATOM    262  P    DC A  11      31.686  76.380  47.150  1.00  0.00     0.408 P 
ATOM    263  OP1  DC A  11      32.905  75.535  47.218  1.00  0.00    -0.624 OA
ATOM    264  OP2  DC A  11      31.718  77.657  46.393  1.00  0.00    -0.624 OA
ATOM    265  O5'  DC A  11      30.502  75.483  46.573  1.00  0.00    -0.287 OA
ATOM    266  C5'  DC A  11      30.172  75.505  45.185  1.00  0.00     0.216 C 
ATOM    267  C4'  DC A  11      29.002  74.589  44.916  1.00  0.00     0.180 C 
ATOM    268  O4'  DC A  11      27.860  75.042  45.696  1.00  0.00    -0.353 OA
ATOM    269  C1'  DC A  11      26.684  74.969  44.910  1.00  0.00     0.264 C 
ATOM    270  N1   DC A  11      26.206  76.339  44.659  1.00  0.00    -0.278 N 
ATOM    271  C6   DC A  11      26.906  77.422  45.119  1.00  0.00     0.102 A 
ATOM    272  C2   DC A  11      25.021  76.519  43.940  1.00  0.00     0.352 A 
ATOM    273  O2   DC A  11      24.403  75.523  43.538  1.00  0.00    -0.244 OA
ATOM    274  N3   DC A  11      24.578  77.773  43.699  1.00  0.00    -0.177 NA
ATOM    275  C4   DC A  11      25.267  78.822  44.150  1.00  0.00     0.128 A 
ATOM    276  N4   DC A  11      24.789  80.036  43.888  1.00  0.00    -0.384 N 
ATOM    277  H41  DC A  11      25.281  80.858  44.210  1.00  0.00     0.157 HD
ATOM    278  H42  DC A  11      23.930  80.131  43.366  1.00  0.00     0.157 HD
ATOM    279  C5   DC A  11      26.476  78.670  44.889  1.00  0.00     0.067 A 
ATOM    280  C2'  DC A  11      27.040  74.199  43.639  1.00  0.00     0.199 C 
ATOM    281  O2'  DC A  11      26.890  72.815  43.891  1.00  0.00    -0.388 OA
ATOM    282 'HO2  DC A  11      27.728  72.403  43.681  1.00  0.00     0.210 HD
ATOM    283  C3'  DC A  11      28.507  74.574  43.477  1.00  0.00     0.198 C 
ATOM    284  O3'  DC A  11      29.229  73.633  42.685  1.00  0.00    -0.279 OA
ATOM    285  P    DT A  12      29.187  73.739  41.080  1.00  0.00     0.408 P 
ATOM    286  OP1  DT A  12      30.193  72.787  40.547  1.00  0.00    -0.624 OA
ATOM    287  OP2  DT A  12      29.255  75.171  40.692  1.00  0.00    -0.624 OA
ATOM    288  O5'  DT A  12      27.739  73.195  40.697  1.00  0.00    -0.287 OA
ATOM    289  C5'  DT A  12      27.364  71.845  40.962  1.00  0.00     0.216 C 
ATOM    290  C4'  DT A  12      26.108  71.495  40.200  1.00  0.00     0.180 C 
ATOM    291  O4'  DT A  12      25.024  72.341  40.674  1.00  0.00    -0.353 OA
ATOM    292  C1'  DT A  12      24.240  72.777  39.578  1.00  0.00     0.264 C 
ATOM    293  N1   DT A  12      24.378  74.237  39.461  1.00  0.00    -0.280 N 
ATOM    294  C6   DT A  12      25.468  74.898  39.979  1.00  0.00     0.104 A 
ATOM    295  C2   DT A  12      23.372  74.925  38.807  1.00  0.00     0.331 A 
ATOM    296  O2   DT A  12      22.392  74.376  38.337  1.00  0.00    -0.246 OA
ATOM    297  N3   DT A  12      23.555  76.281  38.726  1.00  0.00    -0.275 N 
ATOM    298  H3   DT A  12      22.832  76.799  38.247  1.00  0.00     0.173 HD
ATOM    299  C4   DT A  12      24.616  77.006  39.220  1.00  0.00     0.250 A 
ATOM    300  O4   DT A  12      24.638  78.226  39.066  1.00  0.00    -0.268 OA
ATOM    301  C5   DT A  12      25.613  76.224  39.881  1.00  0.00     0.092 A 
ATOM    302  C2'  DT A  12      24.713  72.012  38.343  1.00  0.00     0.199 C 
ATOM    303  O2'  DT A  12      23.982  70.805  38.247  1.00  0.00    -0.388 OA
ATOM    304 'HO2  DT A  12      24.606  70.122  38.005  1.00  0.00     0.210 HD
ATOM    305  C3'  DT A  12      26.170  71.747  38.699  1.00  0.00     0.198 C 
ATOM    306  O3'  DT A  12      26.704  70.624  38.003  1.00  0.00    -0.279 OA
ATOM    307  P    DC A  13      27.559  70.848  36.660  1.00  0.00     0.408 P 
ATOM    308  OP1  DC A  13      28.004  69.513  36.186  1.00  0.00    -0.624 OA
ATOM    309  OP2  DC A  13      28.568  71.907  36.920  1.00  0.00    -0.624 OA
ATOM    310  O5'  DC A  13      26.498  71.419  35.618  1.00  0.00    -0.287 OA
ATOM    311  C5'  DC A  13      25.433  70.603  35.129  1.00  0.00     0.216 C 
ATOM    312  C4'  DC A  13      24.659  71.341  34.062  1.00  0.00     0.180 C 
ATOM    313  O4'  DC A  13      23.918  72.428  34.682  1.00  0.00    -0.353 OA
ATOM    314  C1'  DC A  13      23.965  73.576  33.852  1.00  0.00     0.264 C 
ATOM    315  N1   DC A  13      24.711  74.631  34.557  1.00  0.00    -0.278 N 
ATOM    316  C6   DC A  13      25.808  74.326  35.312  1.00  0.00     0.102 A 
ATOM    317  C2   DC A  13      24.279  75.955  34.442  1.00  0.00     0.352 A 
ATOM    318  O2   DC A  13      23.281  76.203  33.751  1.00  0.00    -0.244 OA
ATOM    319  N3   DC A  13      24.960  76.930  35.085  1.00  0.00    -0.177 NA
ATOM    320  C4   DC A  13      26.031  76.622  35.818  1.00  0.00     0.128 A 
ATOM    321  N4   DC A  13      26.671  77.617  36.431  1.00  0.00    -0.384 N 
ATOM    322  H41  DC A  13      27.487  77.428  36.995  1.00  0.00     0.157 HD
ATOM    323  H42  DC A  13      26.330  78.562  36.328  1.00  0.00     0.157 HD
ATOM    324  C5   DC A  13      26.494  75.282  35.953  1.00  0.00     0.067 A 
ATOM    325  C2'  DC A  13      24.603  73.154  32.530  1.00  0.00     0.199 C 
ATOM    326  O2'  DC A  13      23.587  72.688  31.662  1.00  0.00    -0.388 OA
ATOM    327 'HO2  DC A  13      23.856  72.904  30.768  1.00  0.00     0.210 HD
ATOM    328  C3'  DC A  13      25.505  72.015  32.990  1.00  0.00     0.198 C 
ATOM    329  O3'  DC A  13      25.834  71.114  31.936  1.00  0.00    -0.279 OA
ATOM    330  P    DA A  14      26.962  71.517  30.865  1.00  0.00     0.408 P 
ATOM    331  OP1  DA A  14      27.248  70.311  30.045  1.00  0.00    -0.624 OA
ATOM    332  OP2  DA A  14      28.072  72.195  31.581  1.00  0.00    -0.624 OA
ATOM    333  O5'  DA A  14      26.242  72.592  29.934  1.00  0.00    -0.287 OA
ATOM    334  C5'  DA A  14      25.313  72.190  28.929  1.00  0.00     0.216 C 
ATOM    335  C4'  DA A  14      24.938  73.371  28.065  1.00  0.00     0.180 C 
ATOM    336  O4'  DA A  14      24.285  74.371  28.896  1.00  0.00    -0.353 OA
ATOM    337  C1'  DA A  14      24.738  75.663  28.533  1.00  0.00     0.262 C 
ATOM    338  N9   DA A  14      25.504  76.215  29.651  1.00  0.00    -0.294 N 
ATOM    339  C4   DA A  14      25.505  77.522  30.070  1.00  0.00     0.167 A 
ATOM    340  N3   DA A  14      24.811  78.547  29.546  1.00  0.00    -0.222 NA
ATOM    341  C2   DA A  14      25.062  79.672  30.212  1.00  0.00     0.237 A 
ATOM    342  N1   DA A  14      25.867  79.874  31.262  1.00  0.00    -0.222 NA
ATOM    343  C6   DA A  14      26.549  78.824  31.764  1.00  0.00     0.155 A 
ATOM    344  N6   DA A  14      27.352  79.028  32.808  1.00  0.00    -0.382 N 
ATOM    345  H61  DA A  14      27.872  78.257  33.198  1.00  0.00     0.157 HD
ATOM    346  H62  DA A  14      27.418  79.954  33.204  1.00  0.00     0.157 HD
ATOM    347  C5   DA A  14      26.372  77.573  31.146  1.00  0.00     0.149 A 
ATOM    348  N7   DA A  14      26.908  76.319  31.404  1.00  0.00    -0.236 NA
ATOM    349  C8   DA A  14      26.364  75.551  30.491  1.00  0.00     0.214 A 
ATOM    350  C2'  DA A  14      25.552  75.514  27.248  1.00  0.00     0.199 C 
ATOM    351  O2'  DA A  14      24.673  75.588  26.141  1.00  0.00    -0.388 OA
ATOM    352 'HO2  DA A  14      24.861  74.829  25.588  1.00  0.00     0.210 HD
ATOM    353  C3'  DA A  14      26.105  74.105  27.418  1.00  0.00     0.198 C 
ATOM    354  O3'  DA A  14      26.476  73.515  26.175  1.00  0.00    -0.279 OA
ATOM    355  P    DG A  15      27.983  73.676  25.632  1.00  0.00     0.408 P 
ATOM    356  OP1  DG A  15      28.000  73.196  24.226  1.00  0.00    -0.624 OA
ATOM    357  OP2  DG A  15      28.903  73.068  26.625  1.00  0.00    -0.624 OA
ATOM    358  O5'  DG A  15      28.226  75.252  25.624  1.00  0.00    -0.287 OA
ATOM    359  C5'  DG A  15      27.563  76.093  24.682  1.00  0.00     0.216 C 
ATOM    360  C4'  DG A  15      27.850  77.545  24.988  1.00  0.00     0.180 C 
ATOM    361  O4'  DG A  15      27.351  77.851  26.319  1.00  0.00    -0.353 OA
ATOM    362  C1'  DG A  15      28.270  78.689  26.995  1.00  0.00     0.262 C 
ATOM    363  N9   DG A  15      28.790  77.964  28.151  1.00  0.00    -0.293 N 
ATOM    364  C4   DG A  15      29.213  78.513  29.339  1.00  0.00     0.187 A 
ATOM    365  N3   DG A  15      29.219  79.827  29.648  1.00  0.00    -0.044 NA
ATOM    366  C2   DG A  15      29.686  80.043  30.863  1.00  0.00     0.703 A 
ATOM    367  N2   DG A  15      29.759  81.293  31.332  1.00  0.00    -0.233 N 
ATOM    368  H21  DG A  15      29.456  82.059  30.751  1.00  0.00     0.174 HD
ATOM    369  H22  DG A  15      30.119  81.470  32.260  1.00  0.00     0.174 HD
ATOM    370  N1   DG A  15      30.115  79.055  31.710  1.00  0.00    -0.153 N 
ATOM    371  H1   DG A  15      30.457  79.328  32.618  1.00  0.00     0.187 HD
ATOM    372  C6   DG A  15      30.115  77.696  31.417  1.00  0.00     0.292 A 
ATOM    373  O6   DG A  15      30.520  76.887  32.258  1.00  0.00    -0.265 OA
ATOM    374  C5   DG A  15      29.616  77.444  30.111  1.00  0.00     0.173 A 
ATOM    375  N7   DG A  15      29.448  76.248  29.426  1.00  0.00    -0.234 NA
ATOM    376  C8   DG A  15      28.957  76.606  28.271  1.00  0.00     0.214 A 
ATOM    377  C2'  DG A  15      29.349  79.099  25.993  1.00  0.00     0.199 C 
ATOM    378  O2'  DG A  15      28.945  80.294  25.352  1.00  0.00    -0.388 OA
ATOM    379 'HO2  DG A  15      28.870  80.090  24.419  1.00  0.00     0.210 HD
ATOM    380  C3'  DG A  15      29.326  77.920  25.027  1.00  0.00     0.198 C 
ATOM    381  O3'  DG A  15      29.806  78.272  23.732  1.00  0.00    -0.279 OA
ATOM    382  P    DT A  16      31.102  77.533  23.131  1.00  0.00     0.408 P 
ATOM    383  OP1  DT A  16      31.246  77.977  21.721  1.00  0.00    -0.624 OA
ATOM    384  OP2  DT A  16      31.007  76.083  23.436  1.00  0.00    -0.624 OA
ATOM    385  O5'  DT A  16      32.315  78.144  23.965  1.00  0.00    -0.287 OA
ATOM    386  C5'  DT A  16      32.485  79.555  24.089  1.00  0.00     0.216 C 
ATOM    387  C4'  DT A  16      33.808  79.865  24.747  1.00  0.00     0.180 C 
ATOM    388  O4'  DT A  16      34.318  81.109  24.202  1.00  0.00    -0.353 OA
ATOM    389  C1'  DT A  16      34.928  81.871  25.227  1.00  0.00     0.264 C 
ATOM    390  N1   DT A  16      34.205  83.145  25.347  1.00  0.00    -0.280 N 
ATOM    391  C6   DT A  16      32.852  83.226  25.099  1.00  0.00     0.104 A 
ATOM    392  C2   DT A  16      34.929  84.264  25.713  1.00  0.00     0.331 A 
ATOM    393  O2   DT A  16      36.124  84.233  25.944  1.00  0.00    -0.246 OA
ATOM    394  N3   DT A  16      34.202  85.423  25.800  1.00  0.00    -0.275 N 
ATOM    395  H3   DT A  16      34.707  86.251  26.074  1.00  0.00     0.173 HD
ATOM    396  C4   DT A  16      32.855  85.577  25.561  1.00  0.00     0.250 A 
ATOM    397  O4   DT A  16      32.350  86.695  25.652  1.00  0.00    -0.268 OA
ATOM    398  C5   DT A  16      32.175  84.375  25.192  1.00  0.00     0.092 A 
ATOM    399  C2'  DT A  16      34.923  81.030  26.505  1.00  0.00     0.199 C 
ATOM    400  O2'  DT A  16      36.141  80.313  26.579  1.00  0.00    -0.388 OA
ATOM    401 'HO2  DT A  16      35.922  79.387  26.470  1.00  0.00     0.210 HD
ATOM    402  C3'  DT A  16      33.748  80.091  26.252  1.00  0.00     0.198 C 
ATOM    403  O3'  DT A  16      33.880  78.862  26.963  1.00  0.00    -0.279 OA
ATOM    404  P    DC A  17      33.201  78.697  28.412  1.00  0.00     0.408 P 
ATOM    405  OP1  DC A  17      34.223  78.103  29.311  1.00  0.00    -0.624 OA
ATOM    406  OP2  DC A  17      31.897  78.014  28.234  1.00  0.00    -0.624 OA
ATOM    407  O5'  DC A  17      32.919  80.194  28.884  1.00  0.00    -0.287 OA
ATOM    408  C5'  DC A  17      33.349  80.662  30.164  1.00  0.00     0.216 C 
ATOM    409  C4'  DC A  17      33.683  82.138  30.099  1.00  0.00     0.180 C 
ATOM    410  O4'  DC A  17      33.441  82.620  28.747  1.00  0.00    -0.353 OA
ATOM    411  C1'  DC A  17      32.715  83.834  28.792  1.00  0.00     0.264 C 
ATOM    412  N1   DC A  17      31.346  83.573  28.318  1.00  0.00    -0.278 N 
ATOM    413  C6   DC A  17      30.876  82.295  28.200  1.00  0.00     0.102 A 
ATOM    414  C2   DC A  17      30.528  84.657  27.988  1.00  0.00     0.352 A 
ATOM    415  O2   DC A  17      30.977  85.807  28.107  1.00  0.00    -0.244 OA
ATOM    416  N3   DC A  17      29.270  84.428  27.550  1.00  0.00    -0.177 NA
ATOM    417  C4   DC A  17      28.822  83.177  27.438  1.00  0.00     0.128 A 
ATOM    418  N4   DC A  17      27.576  82.998  27.002  1.00  0.00    -0.384 N 
ATOM    419  H41  DC A  17      27.206  82.063  26.905  1.00  0.00     0.157 HD
ATOM    420  H42  DC A  17      27.009  83.800  26.766  1.00  0.00     0.157 HD
ATOM    421  C5   DC A  17      29.633  82.053  27.768  1.00  0.00     0.067 A 
ATOM    422  C2'  DC A  17      32.790  84.344  30.230  1.00  0.00     0.199 C 
ATOM    423  O2'  DC A  17      33.989  85.080  30.389  1.00  0.00    -0.388 OA
ATOM    424 'HO2  DC A  17      34.519  84.608  31.033  1.00  0.00     0.210 HD
ATOM    425  C3'  DC A  17      32.839  83.031  31.002  1.00  0.00     0.198 C 
ATOM    426  O3'  DC A  17      33.433  83.179  32.288  1.00  0.00    -0.279 OA
ATOM    427  P    DG A  18      32.688  82.593  33.589  1.00  0.00     0.408 P 
ATOM    428  OP1  DG A  18      33.684  82.543  34.687  1.00  0.00    -0.624 OA
ATOM    429  OP2  DG A  18      31.960  81.357  33.200  1.00  0.00    -0.624 OA
ATOM    430  O5'  DG A  18      31.610  83.709  33.952  1.00  0.00    -0.287 OA
ATOM    431  C5'  DG A  18      30.576  83.451  34.900  1.00  0.00     0.216 C 
ATOM    432  C4'  DG A  18      29.883  84.740  35.276  1.00  0.00     0.180 C 
ATOM    433  O4'  DG A  18      28.744  84.924  34.395  1.00  0.00    -0.353 OA
ATOM    434  C1'  DG A  18      27.540  84.742  35.116  1.00  0.00     0.262 C 
ATOM    435  N9   DG A  18      26.693  83.832  34.354  1.00  0.00    -0.293 N 
ATOM    436  C4   DG A  18      25.519  84.149  33.713  1.00  0.00     0.187 A 
ATOM    437  N3   DG A  18      24.938  85.366  33.678  1.00  0.00    -0.044 NA
ATOM    438  C2   DG A  18      23.816  85.357  32.982  1.00  0.00     0.703 A 
ATOM    439  N2   DG A  18      23.111  86.484  32.851  1.00  0.00    -0.233 N 
ATOM    440  H21  DG A  18      23.446  87.332  33.284  1.00  0.00     0.174 HD
ATOM    441  H22  DG A  18      22.242  86.486  32.337  1.00  0.00     0.174 HD
ATOM    442  N1   DG A  18      23.303  84.246  32.365  1.00  0.00    -0.153 N 
ATOM    443  H1   DG A  18      22.437  84.342  31.859  1.00  0.00     0.187 HD
ATOM    444  C6   DG A  18      23.884  82.983  32.384  1.00  0.00     0.292 A 
ATOM    445  O6   DG A  18      23.336  82.048  31.790  1.00  0.00    -0.265 OA
ATOM    446  C5   DG A  18      25.090  82.974  33.132  1.00  0.00     0.173 A 
ATOM    447  N7   DG A  18      25.975  81.939  33.403  1.00  0.00    -0.234 NA
ATOM    448  C8   DG A  18      26.906  82.493  34.129  1.00  0.00     0.214 A 
ATOM    449  C2'  DG A  18      27.903  84.227  36.509  1.00  0.00     0.199 C 
ATOM    450  O2'  DG A  18      27.013  84.795  37.451  1.00  0.00    -0.388 OA
ATOM    451 'HO2  DG A  18      27.374  85.655  37.674  1.00  0.00     0.210 HD
ATOM    452  C3'  DG A  18      29.311  84.785  36.686  1.00  0.00     0.198 C 
ATOM    453  O3'  DG A  18      29.306  86.114  37.203  1.00  0.00    -0.279 OA
ATOM    454  P    DA A  19      30.591  86.668  37.996  1.00  0.00     0.408 P 
ATOM    455  OP1  DA A  19      31.619  87.027  36.986  1.00  0.00    -0.624 OA
ATOM    456  OP2  DA A  19      30.925  85.698  39.070  1.00  0.00    -0.624 OA
ATOM    457  O5'  DA A  19      30.073  88.013  38.674  1.00  0.00    -0.287 OA
ATOM    458  C5'  DA A  19      30.163  88.209  40.085  1.00  0.00     0.216 C 
ATOM    459  C4'  DA A  19      29.981  89.671  40.424  1.00  0.00     0.180 C 
ATOM    460  O4'  DA A  19      31.150  90.407  39.963  1.00  0.00    -0.353 OA
ATOM    461  C1'  DA A  19      30.741  91.617  39.351  1.00  0.00     0.262 C 
ATOM    462  N9   DA A  19      31.011  91.521  37.917  1.00  0.00    -0.294 N 
ATOM    463  C4   DA A  19      31.166  92.570  37.042  1.00  0.00     0.167 A 
ATOM    464  N3   DA A  19      31.107  93.883  37.323  1.00  0.00    -0.222 NA
ATOM    465  C2   DA A  19      31.302  94.607  36.223  1.00  0.00     0.237 A 
ATOM    466  N1   DA A  19      31.533  94.197  34.969  1.00  0.00    -0.222 NA
ATOM    467  C6   DA A  19      31.586  92.872  34.721  1.00  0.00     0.155 A 
ATOM    468  N6   DA A  19      31.812  92.467  33.472  1.00  0.00    -0.382 N 
ATOM    469  H61  DA A  19      31.852  91.479  33.267  1.00  0.00     0.157 HD
ATOM    470  H62  DA A  19      31.943  93.149  32.739  1.00  0.00     0.157 HD
ATOM    471  C5   DA A  19      31.396  91.997  35.805  1.00  0.00     0.149 A 
ATOM    472  N7   DA A  19      31.388  90.612  35.896  1.00  0.00    -0.236 NA
ATOM    473  C8   DA A  19      31.158  90.382  37.165  1.00  0.00     0.214 A 
ATOM    474  C2'  DA A  19      29.264  91.808  39.687  1.00  0.00     0.199 C 
ATOM    475  O2'  DA A  19      29.162  92.439  40.951  1.00  0.00    -0.388 OA
ATOM    476 'HO2  DA A  19      28.583  91.895  41.485  1.00  0.00     0.210 HD
ATOM    477  C3'  DA A  19      28.798  90.361  39.754  1.00  0.00     0.198 C 
ATOM    478  O3'  DA A  19      27.599  90.209  40.509  1.00  0.00    -0.279 OA
ATOM    479  P    DT A  20      26.173  90.423  39.793  1.00  0.00     0.408 P 
ATOM    480  OP1  DT A  20      25.147  90.474  40.866  1.00  0.00    -0.624 OA
ATOM    481  OP2  DT A  20      26.041  89.426  38.700  1.00  0.00    -0.624 OA
ATOM    482  O5'  DT A  20      26.282  91.872  39.139  1.00  0.00    -0.287 OA
ATOM    483  C5'  DT A  20      26.193  93.050  39.940  1.00  0.00     0.216 C 
ATOM    484  C4'  DT A  20      26.436  94.278  39.094  1.00  0.00     0.180 C 
ATOM    485  O4'  DT A  20      27.728  94.157  38.436  1.00  0.00    -0.353 OA
ATOM    486  C1'  DT A  20      27.655  94.718  37.135  1.00  0.00     0.264 C 
ATOM    487  N1   DT A  20      27.935  93.660  36.154  1.00  0.00    -0.280 N 
ATOM    488  C6   DT A  20      27.716  92.332  36.451  1.00  0.00     0.104 A 
ATOM    489  C2   DT A  20      28.424  94.042  34.919  1.00  0.00     0.331 A 
ATOM    490  O2   DT A  20      28.633  95.203  34.618  1.00  0.00    -0.246 OA
ATOM    491  N3   DT A  20      28.662  93.012  34.046  1.00  0.00    -0.275 N 
ATOM    492  H3   DT A  20      29.017  93.270  33.139  1.00  0.00     0.173 HD
ATOM    493  C4   DT A  20      28.467  91.671  34.275  1.00  0.00     0.250 A 
ATOM    494  O4   DT A  20      28.730  90.863  33.384  1.00  0.00    -0.268 OA
ATOM    495  C5   DT A  20      27.962  91.355  35.573  1.00  0.00     0.092 A 
ATOM    496  C2'  DT A  20      26.268  95.340  36.980  1.00  0.00     0.199 C 
ATOM    497  O2'  DT A  20      26.325  96.689  37.403  1.00  0.00    -0.388 OA
ATOM    498 'HO2  DT A  20      25.694  96.777  38.119  1.00  0.00     0.210 HD
ATOM    499  C3'  DT A  20      25.456  94.491  37.949  1.00  0.00     0.198 C 
ATOM    500  O3'  DT A  20      24.268  95.147  38.384  1.00  0.00    -0.279 OA
ATOM    501  P    DC A  21      22.872  94.836  37.650  1.00  0.00     0.408 P 
ATOM    502  OP1  DC A  21      22.826  95.659  36.415  1.00  0.00    -0.624 OA
ATOM    503  OP2  DC A  21      21.787  94.965  38.657  1.00  0.00    -0.624 OA
ATOM    504  O5'  DC A  21      22.988  93.302  37.233  1.00  0.00    -0.287 OA
ATOM    505  C5'  DC A  21      21.827  92.535  36.921  1.00  0.00     0.216 C 
ATOM    506  C4'  DC A  21      22.217  91.247  36.232  1.00  0.00     0.180 C 
ATOM    507  O4'  DC A  21      22.643  91.561  34.875  1.00  0.00    -0.353 OA
ATOM    508  C1'  DC A  21      23.905  90.981  34.635  1.00  0.00     0.264 C 
ATOM    509  N1   DC A  21      24.625  91.812  33.653  1.00  0.00    -0.278 N 
ATOM    510  C6   DC A  21      24.886  91.334  32.400  1.00  0.00     0.102 A 
ATOM    511  C2   DC A  21      25.037  93.100  34.018  1.00  0.00     0.352 A 
ATOM    512  O2   DC A  21      24.794  93.510  35.161  1.00  0.00    -0.244 OA
ATOM    513  N3   DC A  21      25.692  93.863  33.114  1.00  0.00    -0.177 NA
ATOM    514  C4   DC A  21      25.939  93.388  31.893  1.00  0.00     0.128 A 
ATOM    515  N4   DC A  21      26.586  94.178  31.037  1.00  0.00    -0.384 N 
ATOM    516  H41  DC A  21      26.792  93.855  30.103  1.00  0.00     0.157 HD
ATOM    517  H42  DC A  21      26.863  95.104  31.330  1.00  0.00     0.157 HD
ATOM    518  C5   DC A  21      25.533  92.081  31.496  1.00  0.00     0.067 A 
ATOM    519  C2'  DC A  21      24.572  90.869  36.001  1.00  0.00     0.199 C 
ATOM    520  O2'  DC A  21      25.533  89.829  35.953  1.00  0.00    -0.388 OA
ATOM    521 'HO2  DC A  21      25.340  89.236  36.680  1.00  0.00     0.210 HD
ATOM    522  C3'  DC A  21      23.379  90.484  36.871  1.00  0.00     0.198 C 
ATOM    523  O3'  DC A  21      23.145  89.076  36.863  1.00  0.00    -0.279 OA
ATOM    524  P    DC A  22      22.274  88.399  38.034  1.00  0.00     0.408 P 
ATOM    525  OP1  DC A  22      21.511  89.471  38.721  1.00  0.00    -0.624 OA
ATOM    526  OP2  DC A  22      23.170  87.515  38.823  1.00  0.00    -0.624 OA
ATOM    527  O5'  DC A  22      21.235  87.474  37.254  1.00  0.00    -0.287 OA
ATOM    528  C5'  DC A  22      20.252  88.040  36.386  1.00  0.00     0.216 C 
ATOM    529  C4'  DC A  22      19.740  86.995  35.423  1.00  0.00     0.180 C 
ATOM    530  O4'  DC A  22      20.847  86.550  34.590  1.00  0.00    -0.353 OA
ATOM    531  C1'  DC A  22      20.841  85.138  34.498  1.00  0.00     0.264 C 
ATOM    532  N1   DC A  22      21.983  84.615  35.266  1.00  0.00    -0.278 N 
ATOM    533  C6   DC A  22      22.820  85.457  35.944  1.00  0.00     0.102 A 
ATOM    534  C2   DC A  22      22.202  83.234  35.293  1.00  0.00     0.352 A 
ATOM    535  O2   DC A  22      21.432  82.493  34.667  1.00  0.00    -0.244 OA
ATOM    536  N3   DC A  22      23.245  82.743  35.997  1.00  0.00    -0.177 NA
ATOM    537  C4   DC A  22      24.055  83.574  36.654  1.00  0.00     0.128 A 
ATOM    538  N4   DC A  22      25.069  83.042  37.333  1.00  0.00    -0.384 N 
ATOM    539  H41  DC A  22      25.703  83.645  37.841  1.00  0.00     0.157 HD
ATOM    540  H42  DC A  22      25.201  82.041  37.336  1.00  0.00     0.157 HD
ATOM    541  C5   DC A  22      23.859  84.986  36.643  1.00  0.00     0.067 A 
ATOM    542  C2'  DC A  22      19.482  84.667  35.010  1.00  0.00     0.199 C 
ATOM    543  O2'  DC A  22      18.552  84.730  33.946  1.00  0.00    -0.388 OA
ATOM    544 'HO2  DC A  22      17.814  85.256  34.256  1.00  0.00     0.210 HD
ATOM    545  C3'  DC A  22      19.185  85.727  36.063  1.00  0.00     0.198 C 
ATOM    546  O3'  DC A  22      17.791  85.842  36.334  1.00  0.00    -0.279 OA
ATOM    547  P    DC A  23      17.109  84.895  37.442  1.00  0.00     0.408 P 
ATOM    548  OP1  DC A  23      15.664  85.239  37.486  1.00  0.00    -0.624 OA
ATOM    549  OP2  DC A  23      17.918  84.972  38.684  1.00  0.00    -0.624 OA
ATOM    550  O5'  DC A  23      17.254  83.427  36.842  1.00  0.00    -0.287 OA
ATOM    551  C5'  DC A  23      16.657  83.080  35.593  1.00  0.00     0.216 C 
ATOM    552  C4'  DC A  23      16.693  81.581  35.392  1.00  0.00     0.180 C 
ATOM    553  O4'  DC A  23      18.009  81.195  34.913  1.00  0.00    -0.353 OA
ATOM    554  C1'  DC A  23      18.361  79.930  35.453  1.00  0.00     0.264 C 
ATOM    555  N1   DC A  23      19.584  80.090  36.258  1.00  0.00    -0.278 N 
ATOM    556  C6   DC A  23      19.841  81.260  36.916  1.00  0.00     0.102 A 
ATOM    557  C2   DC A  23      20.479  79.021  36.345  1.00  0.00     0.352 A 
ATOM    558  O2   DC A  23      20.224  77.973  35.735  1.00  0.00    -0.244 OA
ATOM    559  N3   DC A  23      21.599  79.155  37.092  1.00  0.00    -0.177 NA
ATOM    560  C4   DC A  23      21.838  80.299  37.733  1.00  0.00     0.128 A 
ATOM    561  N4   DC A  23      22.951  80.382  38.462  1.00  0.00    -0.384 N 
ATOM    562  H41  DC A  23      23.162  81.232  38.961  1.00  0.00     0.157 HD
ATOM    563  H42  DC A  23      23.576  79.590  38.513  1.00  0.00     0.157 HD
ATOM    564  C5   DC A  23      20.947  81.408  37.658  1.00  0.00     0.067 A 
ATOM    565  C2'  DC A  23      17.164  79.427  36.259  1.00  0.00     0.199 C 
ATOM    566  O2'  DC A  23      16.333  78.662  35.405  1.00  0.00    -0.388 OA
ATOM    567 'HO2  DC A  23      15.486  79.108  35.379  1.00  0.00     0.210 HD
ATOM    568  C3'  DC A  23      16.496  80.741  36.645  1.00  0.00     0.198 C 
ATOM    569  O3'  DC A  23      15.116  80.582  36.966  1.00  0.00    -0.279 OA
ATOM    570  P    DG A  24      14.670  80.392  38.500  1.00  0.00     0.408 P 
ATOM    571  OP1  DG A  24      13.195  80.227  38.514  1.00  0.00    -0.624 OA
ATOM    572  OP2  DG A  24      15.295  81.471  39.308  1.00  0.00    -0.624 OA
ATOM    573  O5'  DG A  24      15.326  79.002  38.922  1.00  0.00    -0.287 OA
ATOM    574  C5'  DG A  24      14.925  77.783  38.299  1.00  0.00     0.216 C 
ATOM    575  C4'  DG A  24      15.928  76.691  38.592  1.00  0.00     0.180 C 
ATOM    576  O4'  DG A  24      17.263  77.172  38.303  1.00  0.00    -0.353 OA
ATOM    577  C1'  DG A  24      18.193  76.469  39.105  1.00  0.00     0.262 C 
ATOM    578  N9   DG A  24      19.089  77.436  39.734  1.00  0.00    -0.293 N 
ATOM    579  C4   DG A  24      20.166  77.141  40.533  1.00  0.00     0.187 A 
ATOM    580  N3   DG A  24      20.581  75.904  40.877  1.00  0.00    -0.044 NA
ATOM    581  C2   DG A  24      21.647  75.940  41.656  1.00  0.00     0.703 A 
ATOM    582  N2   DG A  24      22.188  74.798  42.089  1.00  0.00    -0.233 N 
ATOM    583  H21  DG A  24      21.769  73.922  41.811  1.00  0.00     0.174 HD
ATOM    584  H22  DG A  24      23.003  74.803  42.685  1.00  0.00     0.174 HD
ATOM    585  N1   DG A  24      22.258  77.096  42.066  1.00  0.00    -0.153 N 
ATOM    586  H1   DG A  24      23.069  77.012  42.660  1.00  0.00     0.187 HD
ATOM    587  C6   DG A  24      21.848  78.381  41.728  1.00  0.00     0.292 A 
ATOM    588  O6   DG A  24      22.472  79.358  42.158  1.00  0.00    -0.265 OA
ATOM    589  C5   DG A  24      20.703  78.360  40.890  1.00  0.00     0.173 A 
ATOM    590  N7   DG A  24      19.976  79.401  40.327  1.00  0.00    -0.234 NA
ATOM    591  C8   DG A  24      19.031  78.805  39.653  1.00  0.00     0.214 A 
ATOM    592  C2'  DG A  24      17.412  75.621  40.113  1.00  0.00     0.199 C 
ATOM    593  O2'  DG A  24      17.389  74.283  39.653  1.00  0.00    -0.388 OA
ATOM    594 'HO2  DG A  24      16.468  74.027  39.601  1.00  0.00     0.210 HD
ATOM    595  C3'  DG A  24      16.021  76.248  40.043  1.00  0.00     0.198 C 
ATOM    596  O3'  DG A  24      14.990  75.320  40.376  1.00  0.00    -0.279 OA
ATOM    597  P    DC A  25      14.499  75.183  41.903  1.00  0.00     0.408 P 
ATOM    598  OP1  DC A  25      13.488  74.095  41.948  1.00  0.00    -0.624 OA
ATOM    599  OP2  DC A  25      14.143  76.536  42.400  1.00  0.00    -0.624 OA
ATOM    600  O5'  DC A  25      15.796  74.688  42.684  1.00  0.00    -0.287 OA
ATOM    601  C5'  DC A  25      16.366  73.407  42.419  1.00  0.00     0.216 C 
ATOM    602  C4'  DC A  25      17.278  72.994  43.552  1.00  0.00     0.180 C 
ATOM    603  O4'  DC A  25      18.593  73.562  43.331  1.00  0.00    -0.353 OA
ATOM    604  C1'  DC A  25      19.201  73.850  44.578  1.00  0.00     0.264 C 
ATOM    605  N1   DC A  25      19.584  75.271  44.590  1.00  0.00    -0.278 N 
ATOM    606  C6   DC A  25      18.835  76.205  43.929  1.00  0.00     0.102 A 
ATOM    607  C2   DC A  25      20.729  75.655  45.294  1.00  0.00     0.352 A 
ATOM    608  O2   DC A  25      21.391  74.789  45.881  1.00  0.00    -0.244 OA
ATOM    609  N3   DC A  25      21.086  76.958  45.316  1.00  0.00    -0.177 NA
ATOM    610  C4   DC A  25      20.349  77.862  44.670  1.00  0.00     0.128 A 
ATOM    611  N4   DC A  25      20.740  79.134  44.724  1.00  0.00    -0.384 N 
ATOM    612  H41  DC A  25      20.209  79.850  44.249  1.00  0.00     0.157 HD
ATOM    613  H42  DC A  25      21.571  79.380  45.243  1.00  0.00     0.157 HD
ATOM    614  C5   DC A  25      19.177  77.500  43.944  1.00  0.00     0.067 A 
ATOM    615  C2'  DC A  25      18.213  73.472  45.684  1.00  0.00     0.199 C 
ATOM    616  O2'  DC A  25      18.522  72.167  46.137  1.00  0.00    -0.388 OA
ATOM    617 'HO2  DC A  25      17.720  71.817  46.525  1.00  0.00     0.210 HD
ATOM    618  C3'  DC A  25      16.886  73.495  44.934  1.00  0.00     0.198 C 
ATOM    619  O3'  DC A  25      15.908  72.651  45.539  1.00  0.00    -0.279 OA
ATOM    620  P    DT A  26      14.635  73.298  46.281  1.00  0.00     0.408 P 
ATOM    621  OP1  DT A  26      13.562  72.272  46.266  1.00  0.00    -0.624 OA
ATOM    622  OP2  DT A  26      14.370  74.643  45.707  1.00  0.00    -0.624 OA
ATOM    623  O5'  DT A  26      15.116  73.475  47.791  1.00  0.00    -0.287 OA
ATOM    624  C5'  DT A  26      15.826  74.639  48.212  1.00  0.00     0.216 C 
ATOM    625  C4'  DT A  26      16.997  74.246  49.082  1.00  0.00     0.180 C 
ATOM    626  O4'  DT A  26      18.227  74.497  48.347  1.00  0.00    -0.353 OA
ATOM    627  C1'  DT A  26      19.190  75.082  49.206  1.00  0.00     0.264 C 
ATOM    628  N1   DT A  26      19.433  76.461  48.759  1.00  0.00    -0.280 N 
ATOM    629  C6   DT A  26      18.610  77.067  47.836  1.00  0.00     0.104 A 
ATOM    630  C2   DT A  26      20.516  77.133  49.295  1.00  0.00     0.331 A 
ATOM    631  O2   DT A  26      21.268  76.634  50.111  1.00  0.00    -0.246 OA
ATOM    632  N3   DT A  26      20.686  78.416  48.841  1.00  0.00    -0.275 N 
ATOM    633  H3   DT A  26      21.472  78.926  49.217  1.00  0.00     0.173 HD
ATOM    634  C4   DT A  26      19.904  79.080  47.925  1.00  0.00     0.250 A 
ATOM    635  O4   DT A  26      20.190  80.235  47.610  1.00  0.00    -0.268 OA
ATOM    636  C5   DT A  26      18.807  78.320  47.416  1.00  0.00     0.092 A 
ATOM    637  C2'  DT A  26      18.646  74.978  50.631  1.00  0.00     0.199 C 
ATOM    638  O2'  DT A  26      19.023  73.726  51.174  1.00  0.00    -0.388 OA
ATOM    639 'HO2  DT A  26      18.214  73.275  51.415  1.00  0.00     0.210 HD
ATOM    640  C3'  DT A  26      17.145  75.036  50.377  1.00  0.00     0.198 C 
ATOM    641  O3'  DT A  26      16.393  74.445  51.435  1.00  0.00    -0.279 OA
ATOM    642  P    DT A  27      15.293  75.316  52.224  1.00  0.00     0.408 P 
ATOM    643  OP1  DT A  27      14.300  74.369  52.789  1.00  0.00    -0.624 OA
ATOM    644  OP2  DT A  27      14.835  76.419  51.340  1.00  0.00    -0.624 OA
ATOM    645  O5'  DT A  27      16.109  75.957  53.433  1.00  0.00    -0.287 OA
ATOM    646  C5'  DT A  27      16.741  75.133  54.412  1.00  0.00     0.216 C 
ATOM    647  C4'  DT A  27      17.699  75.955  55.243  1.00  0.00     0.180 C 
ATOM    648  O4'  DT A  27      18.882  76.246  54.448  1.00  0.00    -0.353 OA
ATOM    649  C1'  DT A  27      19.302  77.579  54.685  1.00  0.00     0.264 C 
ATOM    650  N1   DT A  27      19.129  78.349  53.443  1.00  0.00    -0.280 N 
ATOM    651  C6   DT A  27      18.159  78.015  52.524  1.00  0.00     0.104 A 
ATOM    652  C2   DT A  27      19.970  79.425  53.232  1.00  0.00     0.331 A 
ATOM    653  O2   DT A  27      20.844  79.749  54.016  1.00  0.00    -0.246 OA
ATOM    654  N3   DT A  27      19.752  80.111  52.065  1.00  0.00    -0.275 N 
ATOM    655  H3   DT A  27      20.354  80.902  51.893  1.00  0.00     0.173 HD
ATOM    656  C4   DT A  27      18.801  79.839  51.108  1.00  0.00     0.250 A 
ATOM    657  O4   DT A  27      18.713  80.565  50.119  1.00  0.00    -0.268 OA
ATOM    658  C5   DT A  27      17.975  78.707  51.396  1.00  0.00     0.092 A 
ATOM    659  C2'  DT A  27      18.474  78.111  55.854  1.00  0.00     0.199 C 
ATOM    660  O2'  DT A  27      19.124  77.767  57.064  1.00  0.00    -0.388 OA
ATOM    661 'HO2  DT A  27      18.466  77.351  57.622  1.00  0.00     0.210 HD
ATOM    662  C3'  DT A  27      17.184  77.321  55.675  1.00  0.00     0.198 C 
ATOM    663  O3'  DT A  27      16.420  77.246  56.875  1.00  0.00    -0.279 OA
ATOM    664  P    DC A  28      15.336  78.388  57.202  1.00  0.00     0.408 P 
ATOM    665  OP1  DC A  28      14.673  78.023  58.478  1.00  0.00    -0.624 OA
ATOM    666  OP2  DC A  28      14.513  78.613  55.985  1.00  0.00    -0.624 OA
ATOM    667  O5'  DC A  28      16.214  79.694  57.454  1.00  0.00    -0.287 OA
ATOM    668  C5'  DC A  28      17.149  79.751  58.528  1.00  0.00     0.216 C 
ATOM    669  C4'  DC A  28      17.932  81.044  58.474  1.00  0.00     0.180 C 
ATOM    670  O4'  DC A  28      18.539  81.191  57.164  1.00  0.00    -0.353 OA
ATOM    671  C1'  DC A  28      18.651  82.570  56.851  1.00  0.00     0.264 C 
ATOM    672  N1   DC A  28      17.977  82.821  55.567  1.00  0.00    -0.278 N 
ATOM    673  C6   DC A  28      17.199  81.863  54.978  1.00  0.00     0.102 A 
ATOM    674  C2   DC A  28      18.143  84.068  54.956  1.00  0.00     0.352 A 
ATOM    675  O2   DC A  28      18.854  84.920  55.508  1.00  0.00    -0.244 OA
ATOM    676  N3   DC A  28      17.526  84.316  53.781  1.00  0.00    -0.177 NA
ATOM    677  C4   DC A  28      16.767  83.377  53.215  1.00  0.00     0.128 A 
ATOM    678  N4   DC A  28      16.176  83.671  52.057  1.00  0.00    -0.384 N 
ATOM    679  H41  DC A  28      15.592  82.988  51.596  1.00  0.00     0.157 HD
ATOM    680  H42  DC A  28      16.318  84.582  51.644  1.00  0.00     0.157 HD
ATOM    681  C5   DC A  28      16.580  82.095  53.813  1.00  0.00     0.067 A 
ATOM    682  C2'  DC A  28      18.045  83.360  58.013  1.00  0.00     0.199 C 
ATOM    683  O2'  DC A  28      19.082  83.718  58.907  1.00  0.00    -0.388 OA
ATOM    684 'HO2  DC A  28      18.789  83.474  59.785  1.00  0.00     0.210 HD
ATOM    685  C3'  DC A  28      17.119  82.318  58.628  1.00  0.00     0.198 C 
ATOM    686  O3'  DC A  28      16.812  82.595  59.992  1.00  0.00    -0.279 OA
ATOM    687  P    DC A  29      15.570  83.552  60.355  1.00  0.00     0.408 P 
ATOM    688  OP1  DC A  29      15.250  83.336  61.789  1.00  0.00    -0.624 OA
ATOM    689  OP2  DC A  29      14.509  83.366  59.331  1.00  0.00    -0.624 OA
ATOM    690  O5'  DC A  29      16.157  85.026  60.193  1.00  0.00    -0.287 OA
ATOM    691  C5'  DC A  29      17.222  85.484  61.023  1.00  0.00     0.216 C 
ATOM    692  C4'  DC A  29      17.616  86.892  60.639  1.00  0.00     0.180 C 
ATOM    693  O4'  DC A  29      18.185  86.882  59.300  1.00  0.00    -0.353 OA
ATOM    694  C1'  DC A  29      17.799  88.061  58.611  1.00  0.00     0.264 C 
ATOM    695  N1   DC A  29      16.971  87.680  57.456  1.00  0.00    -0.278 N 
ATOM    696  C6   DC A  29      16.318  86.479  57.425  1.00  0.00     0.102 A 
ATOM    697  C2   DC A  29      16.854  88.571  56.388  1.00  0.00     0.352 A 
ATOM    698  O2   DC A  29      17.458  89.651  56.439  1.00  0.00    -0.244 OA
ATOM    699  N3   DC A  29      16.086  88.237  55.327  1.00  0.00    -0.177 NA
ATOM    700  C4   DC A  29      15.453  87.064  55.307  1.00  0.00     0.128 A 
ATOM    701  N4   DC A  29      14.709  86.778  54.239  1.00  0.00    -0.384 N 
ATOM    702  H41  DC A  29      14.214  85.901  54.180  1.00  0.00     0.157 HD
ATOM    703  H42  DC A  29      14.646  87.448  53.485  1.00  0.00     0.157 HD
ATOM    704  C5   DC A  29      15.556  86.132  56.380  1.00  0.00     0.067 A 
ATOM    705  C2'  DC A  29      17.064  88.949  59.613  1.00  0.00     0.199 C 
ATOM    706  O2'  DC A  29      18.010  89.762  60.283  1.00  0.00    -0.388 OA
ATOM    707 'HO2  DC A  29      17.758  89.777  61.206  1.00  0.00     0.210 HD
ATOM    708  C3'  DC A  29      16.479  87.899  60.546  1.00  0.00     0.198 C 
ATOM    709  O3'  DC A  29      16.130  88.435  61.820  1.00  0.00    -0.279 OA
ATOM    710  P    DC A  30      14.663  89.056  62.048  1.00  0.00     0.408 P 
ATOM    711  OP1  DC A  30      14.595  89.527  63.455  1.00  0.00    -0.624 OA
ATOM    712  OP2  DC A  30      13.658  88.081  61.550  1.00  0.00    -0.624 OA
ATOM    713  O5'  DC A  30      14.630  90.330  61.091  1.00  0.00    -0.287 OA
ATOM    714  C5'  DC A  30      15.423  91.482  61.376  1.00  0.00     0.216 C 
ATOM    715  C4'  DC A  30      15.163  92.563  60.353  1.00  0.00     0.180 C 
ATOM    716  O4'  DC A  30      15.609  92.108  59.046  1.00  0.00    -0.353 OA
ATOM    717  C1'  DC A  30      14.764  92.647  58.042  1.00  0.00     0.264 C 
ATOM    718  N1   DC A  30      14.135  91.535  57.309  1.00  0.00    -0.278 N 
ATOM    719  C6   DC A  30      14.021  90.296  57.875  1.00  0.00     0.102 A 
ATOM    720  C2   DC A  30      13.649  91.768  56.021  1.00  0.00     0.352 A 
ATOM    721  O2   DC A  30      13.768  92.899  55.528  1.00  0.00    -0.244 OA
ATOM    722  N3   DC A  30      13.062  90.759  55.342  1.00  0.00    -0.177 NA
ATOM    723  C4   DC A  30      12.955  89.553  55.902  1.00  0.00     0.128 A 
ATOM    724  N4   DC A  30      12.372  88.589  55.191  1.00  0.00    -0.384 N 
ATOM    725  H41  DC A  30      12.270  87.660  55.573  1.00  0.00     0.157 HD
ATOM    726  H42  DC A  30      12.034  88.796  54.261  1.00  0.00     0.157 HD
ATOM    727  C5   DC A  30      13.443  89.284  57.214  1.00  0.00     0.067 A 
ATOM    728  C2'  DC A  30      13.750  93.555  58.739  1.00  0.00     0.199 C 
ATOM    729  O2'  DC A  30      14.277  94.868  58.786  1.00  0.00    -0.388 OA
ATOM    730 'HO2  DC A  30      13.573  95.440  59.098  1.00  0.00     0.210 HD
ATOM    731  C3'  DC A  30      13.702  92.923  60.123  1.00  0.00     0.198 C 
ATOM    732  O3'  DC A  30      13.205  93.815  61.117  1.00  0.00    -0.279 OA
ATOM    733  P    DC A  31      11.626  93.866  61.424  1.00  0.00     0.408 P 
ATOM    734  OP1  DC A  31      11.424  94.784  62.573  1.00  0.00    -0.624 OA
ATOM    735  OP2  DC A  31      11.119  92.471  61.500  1.00  0.00    -0.624 OA
ATOM    736  O5'  DC A  31      11.002  94.547  60.125  1.00  0.00    -0.287 OA
ATOM    737  C5'  DC A  31      11.084  95.957  59.925  1.00  0.00     0.216 C 
ATOM    738  C4'  DC A  31      10.629  96.318  58.529  1.00  0.00     0.180 C 
ATOM    739  O4'  DC A  31      11.257  95.431  57.566  1.00  0.00    -0.353 OA
ATOM    740  C1'  DC A  31      10.386  95.243  56.461  1.00  0.00     0.264 C 
ATOM    741  N1   DC A  31      10.132  93.802  56.299  1.00  0.00    -0.278 N 
ATOM    742  C6   DC A  31      10.426  92.920  57.302  1.00  0.00     0.102 A 
ATOM    743  C2   DC A  31       9.580  93.346  55.099  1.00  0.00     0.352 A 
ATOM    744  O2   DC A  31       9.321  94.166  54.206  1.00  0.00    -0.244 OA
ATOM    745  N3   DC A  31       9.339  92.027  54.940  1.00  0.00    -0.177 NA
ATOM    746  C4   DC A  31       9.632  91.174  55.921  1.00  0.00     0.128 A 
ATOM    747  N4   DC A  31       9.379  89.881  55.715  1.00  0.00    -0.384 N 
ATOM    748  H41  DC A  31       9.585  89.200  56.431  1.00  0.00     0.157 HD
ATOM    749  H42  DC A  31       8.983  89.588  54.832  1.00  0.00     0.157 HD
ATOM    750  C5   DC A  31      10.197  91.607  57.156  1.00  0.00     0.067 A 
ATOM    751  C2'  DC A  31       9.118  96.055  56.730  1.00  0.00     0.199 C 
ATOM    752  O2'  DC A  31       9.263  97.333  56.139  1.00  0.00    -0.388 OA
ATOM    753 'HO2  DC A  31       8.889  97.967  56.753  1.00  0.00     0.210 HD
ATOM    754  C3'  DC A  31       9.144  96.145  58.250  1.00  0.00     0.198 C 
ATOM    755  O3'  DC A  31       8.375  97.237  58.747  1.00  0.00    -0.279 OA
ATOM    756  P    DC A  32       6.823  97.022  59.114  1.00  0.00     0.408 P 
ATOM    757  OP1  DC A  32       6.348  98.260  59.780  1.00  0.00    -0.624 OA
ATOM    758  OP2  DC A  32       6.679  95.714  59.804  1.00  0.00    -0.624 OA
ATOM    759  O5'  DC A  32       6.105  96.913  57.695  1.00  0.00    -0.287 OA
ATOM    760  C5'  DC A  32       5.928  98.065  56.872  1.00  0.00     0.216 C 
ATOM    761  C4'  DC A  32       5.278  97.678  55.563  1.00  0.00     0.180 C 
ATOM    762  O4'  DC A  32       6.103  96.689  54.890  1.00  0.00    -0.353 OA
ATOM    763  C1'  DC A  32       5.273  95.806  54.152  1.00  0.00     0.264 C 
ATOM    764  N1   DC A  32       5.515  94.432  54.620  1.00  0.00    -0.278 N 
ATOM    765  C6   DC A  32       6.112  94.195  55.827  1.00  0.00     0.102 A 
ATOM    766  C2   DC A  32       5.120  93.365  53.809  1.00  0.00     0.352 A 
ATOM    767  O2   DC A  32       4.578  93.606  52.721  1.00  0.00    -0.244 OA
ATOM    768  N3   DC A  32       5.337  92.100  54.228  1.00  0.00    -0.177 NA
ATOM    769  C4   DC A  32       5.926  91.879  55.403  1.00  0.00     0.128 A 
ATOM    770  N4   DC A  32       6.123  90.613  55.770  1.00  0.00    -0.384 N 
ATOM    771  H41  DC A  32       6.565  90.398  56.652  1.00  0.00     0.157 HD
ATOM    772  H42  DC A  32       5.828  89.867  55.154  1.00  0.00     0.157 HD
ATOM    773  C5   DC A  32       6.339  92.945  56.253  1.00  0.00     0.067 A 
ATOM    774  C2'  DC A  32       3.826  96.264  54.340  1.00  0.00     0.199 C 
ATOM    775  O2'  DC A  32       3.489  97.149  53.288  1.00  0.00    -0.388 OA
ATOM    776 'HO2  DC A  32       3.132  97.939  53.694  1.00  0.00     0.210 HD
ATOM    777  C3'  DC A  32       3.921  97.001  55.671  1.00  0.00     0.198 C 
ATOM    778  O3'  DC A  32       2.865  97.941  55.847  1.00  0.00    -0.279 OA
ATOM    779  P    DC A  33       1.459  97.459  56.462  1.00  0.00     0.408 P 
ATOM    780  OP1  DC A  33       0.620  98.670  56.653  1.00  0.00    -0.624 OA
ATOM    781  OP2  DC A  33       1.732  96.567  57.618  1.00  0.00    -0.624 OA
ATOM    782  O5'  DC A  33       0.809  96.579  55.302  1.00  0.00    -0.287 OA
ATOM    783  C5'  DC A  33       0.377  97.178  54.080  1.00  0.00     0.216 C 
ATOM    784  C4'  DC A  33      -0.382  96.171  53.245  1.00  0.00     0.180 C 
ATOM    785  O4'  DC A  33       0.558  95.204  52.700  1.00  0.00    -0.353 OA
ATOM    786  C1'  DC A  33      -0.012  93.907  52.737  1.00  0.00     0.264 C 
ATOM    787  N1   DC A  33       0.775  93.079  53.666  1.00  0.00    -0.278 N 
ATOM    788  C6   DC A  33       1.458  93.649  54.703  1.00  0.00     0.102 A 
ATOM    789  C2   DC A  33       0.816  91.697  53.470  1.00  0.00     0.352 A 
ATOM    790  O2   DC A  33       0.181  91.203  52.526  1.00  0.00    -0.244 OA
ATOM    791  N3   DC A  33       1.543  90.932  54.312  1.00  0.00    -0.177 NA
ATOM    792  C4   DC A  33       2.214  91.498  55.317  1.00  0.00     0.128 A 
ATOM    793  N4   DC A  33       2.925  90.703  56.115  1.00  0.00    -0.384 N 
ATOM    794  H41  DC A  33       3.449  91.087  56.887  1.00  0.00     0.157 HD
ATOM    795  H42  DC A  33       2.937  89.708  55.936  1.00  0.00     0.157 HD
ATOM    796  C5   DC A  33       2.186  92.904  55.544  1.00  0.00     0.067 A 
ATOM    797  C2'  DC A  33      -1.476  94.067  53.146  1.00  0.00     0.199 C 
ATOM    798  O2'  DC A  33      -2.253  94.277  51.980  1.00  0.00    -0.388 OA
ATOM    799 'HO2  DC A  33      -2.502  95.202  51.974  1.00  0.00     0.210 HD
ATOM    800  C3'  DC A  33      -1.405  95.329  53.996  1.00  0.00     0.198 C 
ATOM    801  O3'  DC A  33      -2.663  95.991  54.094  1.00  0.00    -0.279 OA
ATOM    802  P    DC A  34      -3.670  95.624  55.294  1.00  0.00     0.408 P 
ATOM    803  OP1  DC A  34      -4.863  96.497  55.158  1.00  0.00    -0.624 OA
ATOM    804  OP2  DC A  34      -2.904  95.619  56.566  1.00  0.00    -0.624 OA
ATOM    805  O5'  DC A  34      -4.115  94.126  54.981  1.00  0.00    -0.287 OA
ATOM    806  C5'  DC A  34      -4.854  93.811  53.802  1.00  0.00     0.216 C 
ATOM    807  C4'  DC A  34      -5.152  92.329  53.753  1.00  0.00     0.180 C 
ATOM    808  O4'  DC A  34      -3.927  91.606  53.478  1.00  0.00    -0.353 OA
ATOM    809  C1'  DC A  34      -3.983  90.334  54.094  1.00  0.00     0.264 C 
ATOM    810  N1   DC A  34      -2.783  90.168  54.930  1.00  0.00    -0.278 N 
ATOM    811  C6   DC A  34      -2.155  91.252  55.480  1.00  0.00     0.102 A 
ATOM    812  C2   DC A  34      -2.295  88.880  55.158  1.00  0.00     0.352 A 
ATOM    813  O2   DC A  34      -2.880  87.915  54.644  1.00  0.00    -0.244 OA
ATOM    814  N3   DC A  34      -1.200  88.715  55.929  1.00  0.00    -0.177 NA
ATOM    815  C4   DC A  34      -0.592  89.777  56.460  1.00  0.00     0.128 A 
ATOM    816  N4   DC A  34       0.485  89.563  57.213  1.00  0.00    -0.384 N 
ATOM    817  H41  DC A  34       0.977  90.336  57.635  1.00  0.00     0.157 HD
ATOM    818  H42  DC A  34       0.808  88.614  57.350  1.00  0.00     0.157 HD
ATOM    819  C5   DC A  34      -1.063  91.104  56.242  1.00  0.00     0.067 A 
ATOM    820  C2'  DC A  34      -5.291  90.243  54.883  1.00  0.00     0.198 C 
ATOM    821  O2'  DC A  34      -6.247  89.564  54.092  1.00  0.00    -0.388 OA
ATOM    822 'HO2  DC A  34      -7.099  89.963  54.277  1.00  0.00     0.210 HD
ATOM    823  C3'  DC A  34      -5.655  91.715  55.050  1.00  0.00     0.182 C 
ATOM    824  O3'  DC A  34      -7.061  91.913  55.236  1.00  0.00    -0.390 OA
ATOM    825 'HO3  DC A  34      -7.232  92.852  55.118  1.00  0.00     0.210 HD
ENDROOT
TORSDOF 264
ENDMDL
MODEL 4
REMARK VINA RESULT:     -13.4     12.731     29.589
REMARK  0 active torsions:
REMARK  status: ('A' for Active; 'I' for Inactive)
REMARK       I    between atoms: O5'_2  and  C5'_3 
REMARK       I    between atoms: C5'_3  and  C4'_4 
REMARK       I    between atoms: C1'_6  and  N9_9 
REMARK       I    between atoms: C2_18  and  N2_20 
REMARK       I    between atoms: C2'_7  and  O2'_23 
REMARK       I    between atoms: C3'_8  and  O3'_25 
REMARK       I    between atoms: O3'_25  and  P_26 
REMARK       I    between atoms: P_26  and  O5'_29 
REMARK       I    between atoms: O5'_29  and  C5'_30 
REMARK       I    between atoms: C5'_30  and  C4'_31 
REMARK       I    between atoms: C1'_33  and  N9_36 
REMARK       I    between atoms: C2_45  and  N2_47 
REMARK       I    between atoms: C2'_34  and  O2'_50 
REMARK       I    between atoms: C3'_35  and  O3'_52 
REMARK       I    between atoms: O3'_52  and  P_53 
REMARK       I    between atoms: P_53  and  O5'_56 
REMARK       I    between atoms: O5'_56  and  C5'_57 
REMARK       I    between atoms: C5'_57  and  C4'_58 
REMARK       I    between atoms: C1'_60  and  N9_63 
REMARK       I    between atoms: C2_72  and  N2_74 
REMARK       I    between atoms: C2'_61  and  O2'_77 
REMARK       I    between atoms: C3'_62  and  O3'_79 
REMARK       I    between atoms: O3'_79  and  P_80 
REMARK       I    between atoms: P_80  and  O5'_83 
REMARK       I    between atoms: O5'_83  and  C5'_84 
REMARK       I    between atoms: C5'_84  and  C4'_85 
REMARK       I    between atoms: C1'_87  and  N9_90 
REMARK       I    between atoms: C2_99  and  N2_101 
REMARK       I    between atoms: C2'_88  and  O2'_104 
REMARK       I    between atoms: C3'_89  and  O3'_106 
REMARK       I    between atoms: O3'_106  and  P_107 
REMARK       I    between atoms: P_107  and  O5'_110 
REMARK       I    between atoms: O5'_110  and  C5'_111 
REMARK       I    between atoms: C5'_111  and  C4'_112 
REMARK       I    between atoms: C1'_114  and  N9_117 
REMARK       I    between atoms: C2_121  and  N2_128 
REMARK       I    between atoms: C2'_115  and  O2'_131 
REMARK       I    between atoms: C3'_116  and  O3'_133 
REMARK       I    between atoms: O3'_133  and  P_134 
REMARK       I    between atoms: P_134  and  O5'_137 
REMARK       I    between atoms: O5'_137  and  C5'_138 
REMARK       I    between atoms: C5'_138  and  C4'_139 
REMARK       I    between atoms: C1'_141  and  N9_144 
REMARK       I    between atoms: C2_148  and  N2_155 
REMARK       I    between atoms: C2'_142  and  O2'_158 
REMARK       I    between atoms: C3'_143  and  O3'_160 
REMARK       I    between atoms: O3'_160  and  P_161 
REMARK       I    between atoms: P_161  and  O5'_164 
REMARK       I    between atoms: O5'_164  and  C5'_165 
REMARK       I    between atoms: C5'_165  and  C4'_166 
REMARK       I    between atoms: C1'_168  and  N9_171 
REMARK       I    between atoms: C2_175  and  N2_182 
REMARK       I    between atoms: C2'_169  and  O2'_185 
REMARK       I    between atoms: C3'_170  and  O3'_187 
REMARK       I    between atoms: O3'_187  and  P_188 
REMARK       I    between atoms: P_188  and  O5'_191 
REMARK       I    between atoms: O5'_191  and  C5'_192 
REMARK       I    between atoms: C5'_192  and  C4'_193 
REMARK       I    between atoms: C1'_195  and  N1_198 
REMARK       I    between atoms: C2'_196  and  O2'_207 
REMARK       I    between atoms: C3'_197  and  O3'_209 
REMARK       I    between atoms: O3'_209  and  P_210 
REMARK       I    between atoms: P_210  and  O5'_213 
REMARK       I    between atoms: O5'_213  and  C5'_214 
REMARK       I    between atoms: C5'_214  and  C4'_215 
REMARK       I    between atoms: C1'_217  and  N9_220 
REMARK       I    between atoms: C6_226  and  N6_229 
REMARK       I    between atoms: C2'_218  and  O2'_232 
REMARK       I    between atoms: C3'_219  and  O3'_234 
REMARK       I    between atoms: O3'_234  and  P_235 
REMARK       I    between atoms: P_235  and  O5'_238 
REMARK       I    between atoms: O5'_238  and  C5'_239 
REMARK       I    between atoms: C5'_239  and  C4'_240 
REMARK       I    between atoms: C1'_242  and  N9_245 
REMARK       I    between atoms: C2_252  and  N2_256 
REMARK       I    between atoms: C2'_243  and  O2'_259 
REMARK       I    between atoms: C3'_244  and  O3'_261 
REMARK       I    between atoms: O3'_261  and  P_262 
REMARK       I    between atoms: P_262  and  O5'_265 
REMARK       I    between atoms: O5'_265  and  C5'_266 
REMARK       I    between atoms: C5'_266  and  C4'_267 
REMARK       I    between atoms: C1'_270  and  N1_816 
REMARK       I    between atoms: C4_819  and  N4_823 
REMARK       I    between atoms: C2'_269  and  O2'_814 
REMARK       I    between atoms: C3'_268  and  O3'_272 
REMARK       I    between atoms: O3'_272  and  P_273 
REMARK       I    between atoms: P_273  and  O5'_276 
REMARK       I    between atoms: O5'_276  and  C5'_277 
REMARK       I    between atoms: C5'_277  and  C4'_278 
REMARK       I    between atoms: C1'_280  and  N1_283 
REMARK       I    between atoms: C2'_281  and  O2'_292 
REMARK       I    between atoms: C3'_282  and  O3'_294 
REMARK       I    between atoms: O3'_294  and  P_295 
REMARK       I    between atoms: P_295  and  O5'_298 
REMARK       I    between atoms: O5'_298  and  C5'_299 
REMARK       I    between atoms: C5'_299  and  C4'_300 
REMARK       I    between atoms: C1'_302  and  N1_305 
REMARK       I    between atoms: C4_308  and  N4_312 
REMARK       I    between atoms: C2'_303  and  O2'_315 
REMARK       I    between atoms: C3'_304  and  O3'_317 
REMARK       I    between atoms: O3'_317  and  P_318 
REMARK       I    between atoms: P_318  and  O5'_321 
REMARK       I    between atoms: O5'_321  and  C5'_322 
REMARK       I    between atoms: C5'_322  and  C4'_323 
REMARK       I    between atoms: C1'_325  and  N9_328 
REMARK       I    between atoms: C6_332  and  N6_337 
REMARK       I    between atoms: C2'_326  and  O2'_340 
REMARK       I    between atoms: C3'_327  and  O3'_342 
REMARK       I    between atoms: O3'_342  and  P_343 
REMARK       I    between atoms: P_343  and  O5'_346 
REMARK       I    between atoms: O5'_346  and  C5'_347 
REMARK       I    between atoms: C5'_347  and  C4'_348 
REMARK       I    between atoms: C1'_350  and  N9_353 
REMARK       I    between atoms: C2_357  and  N2_364 
REMARK       I    between atoms: C2'_351  and  O2'_367 
REMARK       I    between atoms: C3'_352  and  O3'_369 
REMARK       I    between atoms: O3'_369  and  P_370 
REMARK       I    between atoms: P_370  and  O5'_373 
REMARK       I    between atoms: O5'_373  and  C5'_374 
REMARK       I    between atoms: C5'_374  and  C4'_375 
REMARK       I    between atoms: C1'_378  and  N1_805 
REMARK       I    between atoms: C2'_377  and  O2'_803 
REMARK       I    between atoms: C3'_376  and  O3'_380 
REMARK       I    between atoms: O3'_380  and  P_381 
REMARK       I    between atoms: P_381  and  O5'_384 
REMARK       I    between atoms: O5'_384  and  C5'_385 
REMARK       I    between atoms: C5'_385  and  C4'_386 
REMARK       I    between atoms: C1'_389  and  N1_793 
REMARK       I    between atoms: C4_797  and  N4_800 
REMARK       I    between atoms: C2'_388  and  O2'_791 
REMARK       I    between atoms: C3'_387  and  O3'_391 
REMARK       I    between atoms: O3'_391  and  P_392 
REMARK       I    between atoms: P_392  and  O5'_395 
REMARK       I    between atoms: O5'_395  and  C5'_396 
REMARK       I    between atoms: C5'_396  and  C4'_397 
REMARK       I    between atoms: C1'_400  and  N9_777 
REMARK       I    between atoms: C2_784  and  N2_788 
REMARK       I    between atoms: C2'_399  and  O2'_775 
REMARK       I    between atoms: C3'_398  and  O3'_402 
REMARK       I    between atoms: O3'_402  and  P_403 
REMARK       I    between atoms: P_403  and  O5'_406 
REMARK       I    between atoms: O5'_406  and  C5'_407 
REMARK       I    between atoms: C5'_407  and  C4'_408 
REMARK       I    between atoms: C1'_410  and  N9_413 
REMARK       I    between atoms: C6_417  and  N6_422 
REMARK       I    between atoms: C2'_411  and  O2'_425 
REMARK       I    between atoms: C3'_412  and  O3'_427 
REMARK       I    between atoms: O3'_427  and  P_428 
REMARK       I    between atoms: P_428  and  O5'_431 
REMARK       I    between atoms: O5'_431  and  C5'_432 
REMARK       I    between atoms: C5'_432  and  C4'_433 
REMARK       I    between atoms: C1'_436  and  N1_766 
REMARK       I    between atoms: C2'_435  and  O2'_764 
REMARK       I    between atoms: C3'_434  and  O3'_438 
REMARK       I    between atoms: O3'_438  and  P_439 
REMARK       I    between atoms: P_439  and  O5'_442 
REMARK       I    between atoms: O5'_442  and  C5'_443 
REMARK       I    between atoms: C5'_443  and  C4'_444 
REMARK       I    between atoms: C1'_447  and  N1_754 
REMARK       I    between atoms: C4_758  and  N4_761 
REMARK       I    between atoms: C2'_446  and  O2'_752 
REMARK       I    between atoms: C3'_445  and  O3'_449 
REMARK       I    between atoms: O3'_449  and  P_450 
REMARK       I    between atoms: P_450  and  O5'_453 
REMARK       I    between atoms: O5'_453  and  C5'_454 
REMARK       I    between atoms: C5'_454  and  C4'_455 
REMARK       I    between atoms: C1'_457  and  N1_460 
REMARK       I    between atoms: C4_463  and  N4_467 
REMARK       I    between atoms: C2'_458  and  O2'_470 
REMARK       I    between atoms: C3'_459  and  O3'_472 
REMARK       I    between atoms: O3'_472  and  P_473 
REMARK       I    between atoms: P_473  and  O5'_476 
REMARK       I    between atoms: O5'_476  and  C5'_477 
REMARK       I    between atoms: C5'_477  and  C4'_478 
REMARK       I    between atoms: C1'_481  and  N1_742 
REMARK       I    between atoms: C4_746  and  N4_749 
REMARK       I    between atoms: C2'_480  and  O2'_740 
REMARK       I    between atoms: C3'_479  and  O3'_483 
REMARK       I    between atoms: O3'_483  and  P_484 
REMARK       I    between atoms: P_484  and  O5'_487 
REMARK       I    between atoms: O5'_487  and  C5'_488 
REMARK       I    between atoms: C5'_488  and  C4'_489 
REMARK       I    between atoms: C1'_491  and  N9_494 
REMARK       I    between atoms: C2_504  and  N2_505 
REMARK       I    between atoms: C2'_492  and  O2'_508 
REMARK       I    between atoms: C3'_493  and  O3'_510 
REMARK       I    between atoms: O3'_510  and  P_511 
REMARK       I    between atoms: P_511  and  O5'_514 
REMARK       I    between atoms: O5'_514  and  C5'_515 
REMARK       I    between atoms: C5'_515  and  C4'_516 
REMARK       I    between atoms: C1'_519  and  N1_730 
REMARK       I    between atoms: C4_734  and  N4_737 
REMARK       I    between atoms: C2'_518  and  O2'_728 
REMARK       I    between atoms: C3'_517  and  O3'_521 
REMARK       I    between atoms: O3'_521  and  P_522 
REMARK       I    between atoms: P_522  and  O5'_525 
REMARK       I    between atoms: O5'_525  and  C5'_526 
REMARK       I    between atoms: C5'_526  and  C4'_527 
REMARK       I    between atoms: C1'_530  and  N1_719 
REMARK       I    between atoms: C2'_529  and  O2'_717 
REMARK       I    between atoms: C3'_528  and  O3'_532 
REMARK       I    between atoms: O3'_532  and  P_533 
REMARK       I    between atoms: P_533  and  O5'_536 
REMARK       I    between atoms: O5'_536  and  C5'_537 
REMARK       I    between atoms: C5'_537  and  C4'_538 
REMARK       I    between atoms: C1'_541  and  N1_708 
REMARK       I    between atoms: C2'_540  and  O2'_706 
REMARK       I    between atoms: C3'_539  and  O3'_543 
REMARK       I    between atoms: O3'_543  and  P_544 
REMARK       I    between atoms: P_544  and  O5'_547 
REMARK       I    between atoms: O5'_547  and  C5'_548 
REMARK       I    between atoms: C5'_548  and  C4'_549 
REMARK       I    between atoms: C1'_552  and  N1_696 
REMARK       I    between atoms: C4_700  and  N4_703 
REMARK       I    between atoms: C2'_551  and  O2'_694 
REMARK       I    between atoms: C3'_550  and  O3'_554 
REMARK       I    between atoms: O3'_554  and  P_555 
REMARK       I    between atoms: P_555  and  O5'_558 
REMARK       I    between atoms: O5'_558  and  C5'_559 
REMARK       I    between atoms: C5'_559  and  C4'_560 
REMARK       I    between atoms: C1'_563  and  N1_684 
REMARK       I    between atoms: C4_687  and  N4_691 
REMARK       I    between atoms: C2'_562  and  O2'_682 
REMARK       I    between atoms: C3'_561  and  O3'_565 
REMARK       I    between atoms: O3'_565  and  P_566 
REMARK       I    between atoms: P_566  and  O5'_569 
REMARK       I    between atoms: O5'_569  and  C5'_570 
REMARK       I    between atoms: C5'_570  and  C4'_571 
REMARK       I    between atoms: C1'_574  and  N1_672 
REMARK       I    between atoms: C4_675  and  N4_679 
REMARK       I    between atoms: C2'_573  and  O2'_670 
REMARK       I    between atoms: C3'_572  and  O3'_576 
REMARK       I    between atoms: O3'_576  and  P_577 
REMARK       I    between atoms: P_577  and  O5'_580 
REMARK       I    between atoms: O5'_580  and  C5'_581 
REMARK       I    between atoms: C5'_581  and  C4'_582 
REMARK       I    between atoms: C1'_584  and  N1_587 
REMARK       I    between atoms: C4_590  and  N4_594 
REMARK       I    between atoms: C2'_585  and  O2'_597 
REMARK       I    between atoms: C3'_586  and  O3'_599 
REMARK       I    between atoms: O3'_599  and  P_600 
REMARK       I    between atoms: P_600  and  O5'_603 
REMARK       I    between atoms: O5'_603  and  C5'_604 
REMARK       I    between atoms: C5'_604  and  C4'_605 
REMARK       I    between atoms: C1'_607  and  N1_610 
REMARK       I    between atoms: C4_613  and  N4_617 
REMARK       I    between atoms: C2'_608  and  O2'_620 
REMARK       I    between atoms: C3'_609  and  O3'_622 
REMARK       I    between atoms: O3'_622  and  P_623 
REMARK       I    between atoms: P_623  and  O5'_626 
REMARK       I    between atoms: O5'_626  and  C5'_627 
REMARK       I    between atoms: C5'_627  and  C4'_628 
REMARK       I    between atoms: C1'_631  and  N1_660 
REMARK       I    between atoms: C4_663  and  N4_667 
REMARK       I    between atoms: C2'_630  and  O2'_658 
REMARK       I    between atoms: C3'_629  and  O3'_633 
REMARK       I    between atoms: O3'_633  and  P_634 
REMARK       I    between atoms: P_634  and  O5'_637 
REMARK       I    between atoms: O5'_637  and  C5'_638 
REMARK       I    between atoms: C5'_638  and  C4'_639 
REMARK       I    between atoms: C1'_641  and  N1_644 
REMARK       I    between atoms: C4_647  and  N4_651 
REMARK       I    between atoms: C2'_642  and  O2'_654 
REMARK       I    between atoms: C3'_643  and  O3'_656 
ROOT
ATOM      1 'HO5  DG A   1       1.749  73.719  56.475  1.00  0.00     0.209 HD
ATOM      2  O5'  DG A   1       2.641  73.371  56.388  1.00  0.00    -0.398 OA
ATOM      3  C5'  DG A   1       2.982  73.451  55.001  1.00  0.00     0.198 C 
ATOM      4  C4'  DG A   1       1.740  73.513  54.139  1.00  0.00     0.180 C 
ATOM      5  O4'  DG A   1       0.741  74.326  54.814  1.00  0.00    -0.353 OA
ATOM      6  C1'  DG A   1       0.098  75.173  53.878  1.00  0.00     0.262 C 
ATOM      7  N9   DG A   1       0.432  76.556  54.204  1.00  0.00    -0.293 N 
ATOM      8  C4   DG A   1      -0.084  77.685  53.612  1.00  0.00     0.187 A 
ATOM      9  N3   DG A   1      -0.995  77.714  52.617  1.00  0.00    -0.044 NA
ATOM     10  C2   DG A   1      -1.296  78.951  52.261  1.00  0.00     0.703 A 
ATOM     11  N2   DG A   1      -2.182  79.168  51.285  1.00  0.00    -0.233 N 
ATOM     12  H21  DG A   1      -2.620  78.386  50.823  1.00  0.00     0.174 HD
ATOM     13  H22  DG A   1      -2.408  80.114  51.016  1.00  0.00     0.174 HD
ATOM     14  N1   DG A   1      -0.749  80.069  52.836  1.00  0.00    -0.153 N 
ATOM     15  H1   DG A   1      -1.050  80.965  52.489  1.00  0.00     0.187 HD
ATOM     16  C6   DG A   1       0.191  80.064  53.858  1.00  0.00     0.292 A 
ATOM     17  O6   DG A   1       0.623  81.134  54.303  1.00  0.00    -0.265 OA
ATOM     18  C5   DG A   1       0.526  78.743  54.252  1.00  0.00     0.173 A 
ATOM     19  N7   DG A   1       1.408  78.292  55.223  1.00  0.00    -0.234 NA
ATOM     20  C8   DG A   1       1.319  76.991  55.158  1.00  0.00     0.214 A 
ATOM     21  C2'  DG A   1       0.546  74.742  52.483  1.00  0.00     0.199 C 
ATOM     22  O2'  DG A   1      -0.337  73.739  52.014  1.00  0.00    -0.388 OA
ATOM     23 'HO2  DG A   1       0.043  73.392  51.208  1.00  0.00     0.210 HD
ATOM     24  C3'  DG A   1       1.928  74.170  52.778  1.00  0.00     0.198 C 
ATOM     25  O3'  DG A   1       2.342  73.226  51.793  1.00  0.00    -0.279 OA
ATOM     26  P    DG A   2       3.337  73.684  50.617  1.00  0.00     0.408 P 
ATOM     27  OP1  DG A   2       2.623  73.483  49.331  1.00  0.00    -0.624 OA
ATOM     28  OP2  DG A   2       4.646  73.019  50.840  1.00  0.00    -0.624 OA
ATOM     29  O5'  DG A   2       3.523  75.249  50.858  1.00  0.00    -0.287 OA
ATOM     30  C5'  DG A   2       3.944  76.117  49.805  1.00  0.00     0.216 C 
ATOM     31  C4'  DG A   2       2.781  76.432  48.889  1.00  0.00     0.180 C 
ATOM     32  O4'  DG A   2       1.629  76.791  49.705  1.00  0.00    -0.353 OA
ATOM     33  C1'  DG A   2       1.099  78.026  49.264  1.00  0.00     0.262 C 
ATOM     34  N9   DG A   2       1.531  79.066  50.192  1.00  0.00    -0.293 N 
ATOM     35  C4   DG A   2       1.268  80.413  50.101  1.00  0.00     0.187 A 
ATOM     36  N3   DG A   2       0.549  81.019  49.131  1.00  0.00    -0.044 NA
ATOM     37  C2   DG A   2       0.477  82.326  49.316  1.00  0.00     0.703 A 
ATOM     38  N2   DG A   2      -0.198  83.086  48.448  1.00  0.00    -0.233 N 
ATOM     39  H21  DG A   2      -0.649  82.654  47.654  1.00  0.00     0.174 HD
ATOM     40  H22  DG A   2      -0.255  84.085  48.582  1.00  0.00     0.174 HD
ATOM     41  N1   DG A   2       1.061  82.986  50.365  1.00  0.00    -0.153 N 
ATOM     42  H1   DG A   2       0.947  83.988  50.412  1.00  0.00     0.187 HD
ATOM     43  C6   DG A   2       1.804  82.386  51.374  1.00  0.00     0.292 A 
ATOM     44  O6   DG A   2       2.288  83.078  52.277  1.00  0.00    -0.265 OA
ATOM     45  C5   DG A   2       1.892  80.981  51.192  1.00  0.00     0.173 A 
ATOM     46  N7   DG A   2       2.530  80.013  51.955  1.00  0.00    -0.234 NA
ATOM     47  C8   DG A   2       2.287  78.897  51.326  1.00  0.00     0.214 A 
ATOM     48  C2'  DG A   2       1.602  78.217  47.837  1.00  0.00     0.199 C 
ATOM     49  O2'  DG A   2       0.783  77.465  46.960  1.00  0.00    -0.388 OA
ATOM     50 'HO2  DG A   2       1.314  76.734  46.641  1.00  0.00     0.210 HD
ATOM     51  C3'  DG A   2       2.998  77.614  47.949  1.00  0.00     0.198 C 
ATOM     52  O3'  DG A   2       3.512  77.192  46.687  1.00  0.00    -0.279 OA
ATOM     53  P    DG A   3       4.707  78.017  45.993  1.00  0.00     0.408 P 
ATOM     54  OP1  DG A   3       5.075  77.299  44.746  1.00  0.00    -0.624 OA
ATOM     55  OP2  DG A   3       5.747  78.289  47.016  1.00  0.00    -0.624 OA
ATOM     56  O5'  DG A   3       4.033  79.402  45.583  1.00  0.00    -0.287 OA
ATOM     57  C5'  DG A   3       3.030  79.460  44.570  1.00  0.00     0.216 C 
ATOM     58  C4'  DG A   3       2.515  80.872  44.426  1.00  0.00     0.180 C 
ATOM     59  O4'  DG A   3       1.903  81.281  45.678  1.00  0.00    -0.353 OA
ATOM     60  C1'  DG A   3       2.160  82.654  45.908  1.00  0.00     0.262 C 
ATOM     61  N9   DG A   3       2.894  82.782  47.162  1.00  0.00    -0.293 N 
ATOM     62  C4   DG A   3       3.226  83.955  47.797  1.00  0.00     0.187 A 
ATOM     63  N3   DG A   3       2.934  85.199  47.366  1.00  0.00    -0.044 NA
ATOM     64  C2   DG A   3       3.384  86.126  48.191  1.00  0.00     0.703 A 
ATOM     65  N2   DG A   3       3.181  87.416  47.911  1.00  0.00    -0.233 N 
ATOM     66  H21  DG A   3       2.685  87.662  47.068  1.00  0.00     0.174 HD
ATOM     67  H22  DG A   3       3.524  88.135  48.532  1.00  0.00     0.174 HD
ATOM     68  N1   DG A   3       4.065  85.857  49.349  1.00  0.00    -0.153 N 
ATOM     69  H1   DG A   3       4.365  86.640  49.907  1.00  0.00     0.187 HD
ATOM     70  C6   DG A   3       4.379  84.585  49.816  1.00  0.00     0.292 A 
ATOM     71  O6   DG A   3       4.998  84.456  50.879  1.00  0.00    -0.265 OA
ATOM     72  C5   DG A   3       3.903  83.576  48.937  1.00  0.00     0.173 A 
ATOM     73  N7   DG A   3       3.997  82.193  49.018  1.00  0.00    -0.234 NA
ATOM     74  C8   DG A   3       3.387  81.767  47.946  1.00  0.00     0.214 A 
ATOM     75  C2'  DG A   3       2.918  83.198  44.695  1.00  0.00     0.199 C 
ATOM     76  O2'  DG A   3       1.983  83.717  43.767  1.00  0.00    -0.388 OA
ATOM     77 'HO2  DG A   3       2.195  83.321  42.922  1.00  0.00     0.210 HD
ATOM     78  C3'  DG A   3       3.573  81.932  44.155  1.00  0.00     0.198 C 
ATOM     79  O3'  DG A   3       3.871  82.027  42.766  1.00  0.00    -0.279 OA
ATOM     80  P    DG A   4       5.273  82.656  42.289  1.00  0.00     0.408 P 
ATOM     81  OP1  DG A   4       5.181  82.876  40.823  1.00  0.00    -0.624 OA
ATOM     82  OP2  DG A   4       6.372  81.821  42.837  1.00  0.00    -0.624 OA
ATOM     83  O5'  DG A   4       5.324  84.079  43.005  1.00  0.00    -0.287 OA
ATOM     84  C5'  DG A   4       4.535  85.170  42.534  1.00  0.00     0.216 C 
ATOM     85  C4'  DG A   4       5.006  86.463  43.157  1.00  0.00     0.180 C 
ATOM     86  O4'  DG A   4       4.785  86.413  44.584  1.00  0.00    -0.353 OA
ATOM     87  C1'  DG A   4       5.702  87.276  45.225  1.00  0.00     0.262 C 
ATOM     88  N9   DG A   4       6.245  86.588  46.392  1.00  0.00    -0.293 N 
ATOM     89  C4   DG A   4       6.766  87.182  47.514  1.00  0.00     0.187 A 
ATOM     90  N3   DG A   4       6.865  88.510  47.732  1.00  0.00    -0.044 NA
ATOM     91  C2   DG A   4       7.410  88.778  48.904  1.00  0.00     0.703 A 
ATOM     92  N2   DG A   4       7.582  90.049  49.274  1.00  0.00    -0.233 N 
ATOM     93  H21  DG A   4       7.290  90.786  48.650  1.00  0.00     0.174 HD
ATOM     94  H22  DG A   4       8.002  90.271  50.167  1.00  0.00     0.174 HD
ATOM     95  N1   DG A   4       7.825  87.822  49.795  1.00  0.00    -0.153 N 
ATOM     96  H1   DG A   4       8.230  88.135  50.663  1.00  0.00     0.187 HD
ATOM     97  C6   DG A   4       7.732  86.449  49.596  1.00  0.00     0.292 A 
ATOM     98  O6   DG A   4       8.136  85.674  50.471  1.00  0.00    -0.265 OA
ATOM     99  C5   DG A   4       7.148  86.144  48.336  1.00  0.00     0.173 A 
ATOM    100  N7   DG A   4       6.874  84.919  47.742  1.00  0.00    -0.234 NA
ATOM    101  C8   DG A   4       6.341  85.232  46.593  1.00  0.00     0.214 A 
ATOM    102  C2'  DG A   4       6.771  87.691  44.206  1.00  0.00     0.199 C 
ATOM    103  O2'  DG A   4       6.541  89.037  43.838  1.00  0.00    -0.388 OA
ATOM    104 'HO2  DG A   4       7.403  89.456  43.769  1.00  0.00     0.210 HD
ATOM    105  C3'  DG A   4       6.497  86.741  43.037  1.00  0.00     0.198 C 
ATOM    106  O3'  DG A   4       6.808  87.324  41.775  1.00  0.00    -0.279 OA
ATOM    107  P    DG A   5       8.342  87.537  41.346  1.00  0.00     0.408 P 
ATOM    108  OP1  DG A   5       8.341  88.057  39.956  1.00  0.00    -0.624 OA
ATOM    109  OP2  DG A   5       9.095  86.296  41.666  1.00  0.00    -0.624 OA
ATOM    110  O5'  DG A   5       8.855  88.703  42.306  1.00  0.00    -0.287 OA
ATOM    111  C5'  DG A   5      10.040  88.550  43.084  1.00  0.00     0.216 C 
ATOM    112  C4'  DG A   5      10.295  89.800  43.892  1.00  0.00     0.180 C 
ATOM    113  O4'  DG A   5       9.436  89.780  45.066  1.00  0.00    -0.353 OA
ATOM    114  C1'  DG A   5      10.174  90.183  46.206  1.00  0.00     0.262 C 
ATOM    115  N9   DG A   5      10.338  89.025  47.081  1.00  0.00    -0.293 N 
ATOM    116  C4   DG A   5      10.933  89.012  48.320  1.00  0.00     0.187 A 
ATOM    117  N3   DG A   5      11.473  90.075  48.951  1.00  0.00    -0.044 NA
ATOM    118  C2   DG A   5      11.972  89.747  50.130  1.00  0.00     0.703 A 
ATOM    119  N2   DG A   5      12.551  90.680  50.888  1.00  0.00    -0.233 N 
ATOM    120  H21  DG A   5      12.600  91.631  50.552  1.00  0.00     0.174 HD
ATOM    121  H22  DG A   5      12.936  90.436  51.790  1.00  0.00     0.174 HD
ATOM    122  N1   DG A   5      11.943  88.479  50.650  1.00  0.00    -0.153 N 
ATOM    123  H1   DG A   5      12.354  88.337  51.559  1.00  0.00     0.187 HD
ATOM    124  C6   DG A   5      11.392  87.370  50.020  1.00  0.00     0.292 A 
ATOM    125  O6   DG A   5      11.417  86.268  50.584  1.00  0.00    -0.265 OA
ATOM    126  C5   DG A   5      10.853  87.704  48.750  1.00  0.00     0.173 A 
ATOM    127  N7   DG A   5      10.219  86.911  47.803  1.00  0.00    -0.234 NA
ATOM    128  C8   DG A   5       9.932  87.736  46.834  1.00  0.00     0.214 A 
ATOM    129  C2'  DG A   5      11.494  90.764  45.702  1.00  0.00     0.199 C 
ATOM    130  O2'  DG A   5      11.303  92.133  45.394  1.00  0.00    -0.388 OA
ATOM    131 'HO2  DG A   5      11.792  92.302  44.587  1.00  0.00     0.210 HD
ATOM    132  C3'  DG A   5      11.709  89.941  44.440  1.00  0.00     0.198 C 
ATOM    133  O3'  DG A   5      12.569  90.587  43.505  1.00  0.00    -0.279 OA
ATOM    134  P    DG A   6      14.098  90.106  43.356  1.00  0.00     0.408 P 
ATOM    135  OP1  DG A   6      14.691  90.865  42.225  1.00  0.00    -0.624 OA
ATOM    136  OP2  DG A   6      14.123  88.622  43.335  1.00  0.00    -0.624 OA
ATOM    137  O5'  DG A   6      14.790  90.600  44.704  1.00  0.00    -0.287 OA
ATOM    138  C5'  DG A   6      14.817  91.985  45.049  1.00  0.00     0.216 C 
ATOM    139  C4'  DG A   6      15.697  92.204  46.258  1.00  0.00     0.180 C 
ATOM    140  O4'  DG A   6      14.939  91.889  47.457  1.00  0.00    -0.353 OA
ATOM    141  C1'  DG A   6      15.794  91.294  48.419  1.00  0.00     0.262 C 
ATOM    142  N9   DG A   6      15.308  89.949  48.706  1.00  0.00    -0.293 N 
ATOM    143  C4   DG A   6      15.672  89.166  49.773  1.00  0.00     0.187 A 
ATOM    144  N3   DG A   6      16.533  89.511  50.751  1.00  0.00    -0.044 NA
ATOM    145  C2   DG A   6      16.689  88.544  51.635  1.00  0.00     0.703 A 
ATOM    146  N2   DG A   6      17.512  88.720  52.671  1.00  0.00    -0.233 N 
ATOM    147  H21  DG A   6      18.009  89.594  52.768  1.00  0.00     0.174 HD
ATOM    148  H22  DG A   6      17.639  87.984  53.352  1.00  0.00     0.174 HD
ATOM    149  N1   DG A   6      16.050  87.333  51.569  1.00  0.00    -0.153 N 
ATOM    150  H1   DG A   6      16.243  86.664  52.298  1.00  0.00     0.187 HD
ATOM    151  C6   DG A   6      15.157  86.954  50.574  1.00  0.00     0.292 A 
ATOM    152  O6   DG A   6      14.632  85.835  50.612  1.00  0.00    -0.265 OA
ATOM    153  C5   DG A   6      14.979  87.984  49.613  1.00  0.00     0.173 A 
ATOM    154  N7   DG A   6      14.189  88.027  48.471  1.00  0.00    -0.234 NA
ATOM    155  C8   DG A   6      14.415  89.210  47.970  1.00  0.00     0.214 A 
ATOM    156  C2'  DG A   6      17.214  91.306  47.849  1.00  0.00     0.199 C 
ATOM    157  O2'  DG A   6      17.860  92.495  48.262  1.00  0.00    -0.388 OA
ATOM    158 'HO2  DG A   6      18.737  92.241  48.552  1.00  0.00     0.210 HD
ATOM    159  C3'  DG A   6      16.931  91.315  46.351  1.00  0.00     0.198 C 
ATOM    160  O3'  DG A   6      18.021  91.836  45.597  1.00  0.00    -0.279 OA
ATOM    161  P    DG A   7      19.308  90.915  45.313  1.00  0.00     0.408 P 
ATOM    162  OP1  DG A   7      20.366  91.792  44.745  1.00  0.00    -0.624 OA
ATOM    163  OP2  DG A   7      18.862  89.721  44.552  1.00  0.00    -0.624 OA
ATOM    164  O5'  DG A   7      19.774  90.437  46.763  1.00  0.00    -0.287 OA
ATOM    165  C5'  DG A   7      20.933  90.992  47.385  1.00  0.00     0.216 C 
ATOM    166  C4'  DG A   7      20.970  90.626  48.855  1.00  0.00     0.180 C 
ATOM    167  O4'  DG A   7      19.703  90.042  49.249  1.00  0.00    -0.353 OA
ATOM    168  C1'  DG A   7      19.915  89.113  50.297  1.00  0.00     0.262 C 
ATOM    169  N9   DG A   7      19.308  87.840  49.916  1.00  0.00    -0.293 N 
ATOM    170  C4   DG A   7      19.354  86.665  50.630  1.00  0.00     0.187 A 
ATOM    171  N3   DG A   7      19.971  86.480  51.816  1.00  0.00    -0.044 NA
ATOM    172  C2   DG A   7      19.841  85.238  52.250  1.00  0.00     0.703 A 
ATOM    173  N2   DG A   7      20.392  84.882  53.414  1.00  0.00    -0.233 N 
ATOM    174  H21  DG A   7      20.904  85.567  53.951  1.00  0.00     0.174 HD
ATOM    175  H22  DG A   7      20.299  83.934  53.750  1.00  0.00     0.174 HD
ATOM    176  N1   DG A   7      19.162  84.256  51.578  1.00  0.00    -0.153 N 
ATOM    177  H1   DG A   7      19.129  83.342  52.003  1.00  0.00     0.187 HD
ATOM    178  C6   DG A   7      18.517  84.421  50.358  1.00  0.00     0.292 A 
ATOM    179  O6   DG A   7      17.930  83.464  49.837  1.00  0.00    -0.265 OA
ATOM    180  C5   DG A   7      18.647  85.752  49.875  1.00  0.00     0.173 A 
ATOM    181  N7   DG A   7      18.165  86.339  48.713  1.00  0.00    -0.234 NA
ATOM    182  C8   DG A   7      18.581  87.574  48.781  1.00  0.00     0.214 A 
ATOM    183  C2'  DG A   7      21.423  89.020  50.551  1.00  0.00     0.199 C 
ATOM    184  O2'  DG A   7      21.752  89.867  51.637  1.00  0.00    -0.388 OA
ATOM    185 'HO2  DG A   7      22.521  90.370  51.368  1.00  0.00     0.210 HD
ATOM    186  C3'  DG A   7      21.990  89.565  49.243  1.00  0.00     0.198 C 
ATOM    187  O3'  DG A   7      23.291  90.124  49.410  1.00  0.00    -0.279 OA
ATOM    188  P    DT A   8      24.576  89.349  48.833  1.00  0.00     0.408 P 
ATOM    189  OP1  DT A   8      25.783  90.061  49.324  1.00  0.00    -0.624 OA
ATOM    190  OP2  DT A   8      24.385  89.152  47.373  1.00  0.00    -0.624 OA
ATOM    191  O5'  DT A   8      24.515  87.920  49.537  1.00  0.00    -0.287 OA
ATOM    192  C5'  DT A   8      24.827  87.766  50.922  1.00  0.00     0.216 C 
ATOM    193  C4'  DT A   8      24.829  86.302  51.294  1.00  0.00     0.180 C 
ATOM    194  O4'  DT A   8      23.453  85.848  51.416  1.00  0.00    -0.353 OA
ATOM    195  C1'  DT A   8      23.315  84.568  50.827  1.00  0.00     0.264 C 
ATOM    196  N1   DT A   8      22.436  84.692  49.655  1.00  0.00    -0.280 N 
ATOM    197  C6   DT A   8      22.493  85.798  48.837  1.00  0.00     0.104 A 
ATOM    198  C2   DT A   8      21.552  83.660  49.397  1.00  0.00     0.331 A 
ATOM    199  O2   DT A   8      21.471  82.666  50.096  1.00  0.00    -0.246 OA
ATOM    200  N3   DT A   8      20.765  83.836  48.289  1.00  0.00    -0.275 N 
ATOM    201  H3   DT A   8      20.100  83.104  48.091  1.00  0.00     0.173 HD
ATOM    202  C4   DT A   8      20.773  84.910  47.427  1.00  0.00     0.250 A 
ATOM    203  O4   DT A   8      20.020  84.910  46.454  1.00  0.00    -0.268 OA
ATOM    204  C5   DT A   8      21.711  85.934  47.762  1.00  0.00     0.092 A 
ATOM    205  C2'  DT A   8      24.718  84.062  50.491  1.00  0.00     0.199 C 
ATOM    206  O2'  DT A   8      25.230  83.367  51.612  1.00  0.00    -0.388 OA
ATOM    207 'HO2  DT A   8      26.181  83.486  51.611  1.00  0.00     0.210 HD
ATOM    208  C3'  DT A   8      25.461  85.373  50.264  1.00  0.00     0.198 C 
ATOM    209  O3'  DT A   8      26.865  85.251  50.477  1.00  0.00    -0.279 OA
ATOM    210  P    DA A   9      27.829  84.830  49.261  1.00  0.00     0.408 P 
ATOM    211  OP1  DA A   9      28.977  85.771  49.266  1.00  0.00    -0.624 OA
ATOM    212  OP2  DA A   9      27.014  84.673  48.029  1.00  0.00    -0.624 OA
ATOM    213  O5'  DA A   9      28.368  83.390  49.683  1.00  0.00    -0.287 OA
ATOM    214  C5'  DA A   9      29.123  83.209  50.881  1.00  0.00     0.216 C 
ATOM    215  C4'  DA A   9      29.236  81.737  51.208  1.00  0.00     0.180 C 
ATOM    216  O4'  DA A   9      27.923  81.239  51.589  1.00  0.00    -0.353 OA
ATOM    217  C1'  DA A   9      27.694  79.980  50.982  1.00  0.00     0.262 C 
ATOM    218  N9   DA A   9      26.650  80.139  49.970  1.00  0.00    -0.294 N 
ATOM    219  C4   DA A   9      25.876  79.140  49.430  1.00  0.00     0.167 A 
ATOM    220  N3   DA A   9      25.913  77.829  49.722  1.00  0.00    -0.222 NA
ATOM    221  C2   DA A   9      25.019  77.160  48.997  1.00  0.00     0.237 A 
ATOM    222  N1   DA A   9      24.155  77.619  48.082  1.00  0.00    -0.222 NA
ATOM    223  C6   DA A   9      24.142  78.942  47.813  1.00  0.00     0.155 A 
ATOM    224  N6   DA A   9      23.282  79.398  46.903  1.00  0.00    -0.382 N 
ATOM    225  H61  DA A   9      23.256  80.384  46.687  1.00  0.00     0.157 HD
ATOM    226  H62  DA A   9      22.657  78.761  46.427  1.00  0.00     0.157 HD
ATOM    227  C5   DA A   9      25.044  79.762  48.515  1.00  0.00     0.149 A 
ATOM    228  N7   DA A   9      25.286  81.128  48.480  1.00  0.00    -0.236 NA
ATOM    229  C8   DA A   9      26.242  81.300  49.360  1.00  0.00     0.214 A 
ATOM    230  C2'  DA A   9      29.031  79.509  50.414  1.00  0.00     0.199 C 
ATOM    231  O2'  DA A   9      29.754  78.846  51.436  1.00  0.00    -0.388 OA
ATOM    232 'HO2  DA A   9      30.669  78.819  51.157  1.00  0.00     0.210 HD
ATOM    233  C3'  DA A   9      29.674  80.842  50.055  1.00  0.00     0.198 C 
ATOM    234  O3'  DA A   9      31.093  80.757  49.959  1.00  0.00    -0.279 OA
ATOM    235  P    DG A  10      31.781  80.464  48.534  1.00  0.00     0.408 P 
ATOM    236  OP1  DG A  10      33.250  80.593  48.716  1.00  0.00    -0.624 OA
ATOM    237  OP2  DG A  10      31.096  81.284  47.503  1.00  0.00    -0.624 OA
ATOM    238  O5'  DG A  10      31.451  78.930  48.254  1.00  0.00    -0.287 OA
ATOM    239  C5'  DG A  10      32.114  77.895  48.977  1.00  0.00     0.216 C 
ATOM    240  C4'  DG A  10      31.615  76.541  48.532  1.00  0.00     0.180 C 
ATOM    241  O4'  DG A  10      30.173  76.494  48.661  1.00  0.00    -0.353 OA
ATOM    242  C1'  DG A  10      29.646  75.598  47.700  1.00  0.00     0.262 C 
ATOM    243  N9   DG A  10      28.579  76.277  46.971  1.00  0.00    -0.293 N 
ATOM    244  C4   DG A  10      27.568  75.675  46.264  1.00  0.00     0.187 A 
ATOM    245  N3   DG A  10      27.386  74.346  46.125  1.00  0.00    -0.044 NA
ATOM    246  C2   DG A  10      26.328  74.070  45.385  1.00  0.00     0.703 A 
ATOM    247  N2   DG A  10      26.005  72.797  45.149  1.00  0.00    -0.233 N 
ATOM    248  H21  DG A  10      26.578  72.063  45.541  1.00  0.00     0.174 HD
ATOM    249  H22  DG A  10      25.199  72.569  44.584  1.00  0.00     0.174 HD
ATOM    250  N1   DG A  10      25.511  75.019  44.827  1.00  0.00    -0.153 N 
ATOM    251  H1   DG A  10      24.727  74.697  44.278  1.00  0.00     0.187 HD
ATOM    252  C6   DG A  10      25.677  76.392  44.958  1.00  0.00     0.292 A 
ATOM    253  O6   DG A  10      24.879  77.163  44.412  1.00  0.00    -0.265 OA
ATOM    254  C5   DG A  10      26.814  76.708  45.750  1.00  0.00     0.173 A 
ATOM    255  N7   DG A  10      27.339  77.937  46.126  1.00  0.00    -0.234 NA
ATOM    256  C8   DG A  10      28.383  77.632  46.849  1.00  0.00     0.214 A 
ATOM    257  C2'  DG A  10      30.796  75.128  46.804  1.00  0.00     0.199 C 
ATOM    258  O2'  DG A  10      31.226  73.857  47.253  1.00  0.00    -0.388 OA
ATOM    259 'HO2  DG A  10      31.575  73.398  46.487  1.00  0.00     0.210 HD
ATOM    260  C3'  DG A  10      31.854  76.195  47.071  1.00  0.00     0.198 C 
ATOM    261  O3'  DG A  10      33.181  75.713  46.863  1.00  0.00    -0.279 OA
ATOM    262  P    DC A  11      33.727  75.489  45.367  1.00  0.00     0.408 P 
ATOM    263  OP1  DC A  11      35.047  74.817  45.473  1.00  0.00    -0.624 OA
ATOM    264  OP2  DC A  11      33.614  76.771  44.626  1.00  0.00    -0.624 OA
ATOM    265  O5'  DC A  11      32.700  74.449  44.731  1.00  0.00    -0.287 OA
ATOM    266  C5'  DC A  11      32.425  74.450  43.331  1.00  0.00     0.216 C 
ATOM    267  C4'  DC A  11      31.402  73.389  43.003  1.00  0.00     0.180 C 
ATOM    268  O4'  DC A  11      30.180  73.668  43.741  1.00  0.00    -0.353 OA
ATOM    269  C1'  DC A  11      29.056  73.450  42.907  1.00  0.00     0.264 C 
ATOM    270  N1   DC A  11      28.405  74.747  42.653  1.00  0.00    -0.278 N 
ATOM    271  C6   DC A  11      28.932  75.906  43.154  1.00  0.00     0.102 A 
ATOM    272  C2   DC A  11      27.236  74.776  41.888  1.00  0.00     0.352 A 
ATOM    273  O2   DC A  11      26.776  73.712  41.449  1.00  0.00    -0.244 OA
ATOM    274  N3   DC A  11      26.635  75.962  41.645  1.00  0.00    -0.177 NA
ATOM    275  C4   DC A  11      27.156  77.086  42.136  1.00  0.00     0.128 A 
ATOM    276  N4   DC A  11      26.528  78.229  41.869  1.00  0.00    -0.384 N 
ATOM    277  H41  DC A  11      26.889  79.104  42.221  1.00  0.00     0.157 HD
ATOM    278  H42  DC A  11      25.684  78.215  41.314  1.00  0.00     0.157 HD
ATOM    279  C5   DC A  11      28.345  77.088  42.921  1.00  0.00     0.067 A 
ATOM    280  C2'  DC A  11      29.563  72.758  41.642  1.00  0.00     0.199 C 
ATOM    281  O2'  DC A  11      29.594  71.362  41.872  1.00  0.00    -0.388 OA
ATOM    282 'HO2  DC A  11      30.488  71.071  41.690  1.00  0.00     0.210 HD
ATOM    283  C3'  DC A  11      30.970  73.332  41.544  1.00  0.00     0.198 C 
ATOM    284  O3'  DC A  11      31.844  72.512  40.772  1.00  0.00    -0.279 OA
ATOM    285  P    DT A  12      31.851  72.639  39.168  1.00  0.00     0.408 P 
ATOM    286  OP1  DT A  12      32.998  71.842  38.665  1.00  0.00    -0.624 OA
ATOM    287  OP2  DT A  12      31.737  74.073  38.800  1.00  0.00    -0.624 OA
ATOM    288  O5'  DT A  12      30.506  71.910  38.719  1.00  0.00    -0.287 OA
ATOM    289  C5'  DT A  12      30.309  70.516  38.953  1.00  0.00     0.216 C 
ATOM    290  C4'  DT A  12      29.144  70.013  38.136  1.00  0.00     0.180 C 
ATOM    291  O4'  DT A  12      27.937  70.694  38.576  1.00  0.00    -0.353 OA
ATOM    292  C1'  DT A  12      27.144  71.038  37.454  1.00  0.00     0.264 C 
ATOM    293  N1   DT A  12      27.085  72.506  37.359  1.00  0.00    -0.280 N 
ATOM    294  C6   DT A  12      28.054  73.300  37.929  1.00  0.00     0.104 A 
ATOM    295  C2   DT A  12      26.020  73.062  36.674  1.00  0.00     0.331 A 
ATOM    296  O2   DT A  12      25.144  72.393  36.157  1.00  0.00    -0.246 OA
ATOM    297  N3   DT A  12      26.020  74.432  36.617  1.00  0.00    -0.275 N 
ATOM    298  H3   DT A  12      25.252  74.854  36.115  1.00  0.00     0.173 HD
ATOM    299  C4   DT A  12      26.951  75.285  37.162  1.00  0.00     0.250 A 
ATOM    300  O4   DT A  12      26.813  76.500  37.024  1.00  0.00    -0.268 OA
ATOM    301  C5   DT A  12      28.020  74.634  37.853  1.00  0.00     0.092 A 
ATOM    302  C2'  DT A  12      27.765  70.367  36.230  1.00  0.00     0.199 C 
ATOM    303  O2'  DT A  12      27.209  69.074  36.089  1.00  0.00    -0.388 OA
ATOM    304 'HO2  DT A  12      27.930  68.486  35.865  1.00  0.00     0.210 HD
ATOM    305  C3'  DT A  12      29.229  70.296  36.642  1.00  0.00     0.198 C 
ATOM    306  O3'  DT A  12      29.938  69.269  35.955  1.00  0.00    -0.279 OA
ATOM    307  P    DC A  13      30.806  69.631  34.651  1.00  0.00     0.408 P 
ATOM    308  OP1  DC A  13      31.448  68.377  34.180  1.00  0.00    -0.624 OA
ATOM    309  OP2  DC A  13      31.650  70.812  34.964  1.00  0.00    -0.624 OA
ATOM    310  O5'  DC A  13      29.718  70.070  33.573  1.00  0.00    -0.287 OA
ATOM    311  C5'  DC A  13      28.795  69.126  33.031  1.00  0.00     0.216 C 
ATOM    312  C4'  DC A  13      27.969  69.770  31.942  1.00  0.00     0.180 C 
ATOM    313  O4'  DC A  13      27.063  70.735  32.544  1.00  0.00    -0.353 OA
ATOM    314  C1'  DC A  13      26.985  71.892  31.731  1.00  0.00     0.264 C 
ATOM    315  N1   DC A  13      27.551  73.027  32.478  1.00  0.00    -0.278 N 
ATOM    316  C6   DC A  13      28.650  72.862  33.274  1.00  0.00     0.102 A 
ATOM    317  C2   DC A  13      26.947  74.282  32.362  1.00  0.00     0.352 A 
ATOM    318  O2   DC A  13      25.952  74.404  31.633  1.00  0.00    -0.244 OA
ATOM    319  N3   DC A  13      27.463  75.329  33.043  1.00  0.00    -0.177 NA
ATOM    320  C4   DC A  13      28.537  75.157  33.816  1.00  0.00     0.128 A 
ATOM    321  N4   DC A  13      29.010  76.219  34.466  1.00  0.00    -0.384 N 
ATOM    322  H41  DC A  13      29.822  76.133  35.061  1.00  0.00     0.157 HD
ATOM    323  H42  DC A  13      28.548  77.111  34.361  1.00  0.00     0.157 HD
ATOM    324  C5   DC A  13      29.173  73.890  33.954  1.00  0.00     0.067 A 
ATOM    325  C2'  DC A  13      27.726  71.585  30.431  1.00  0.00     0.199 C 
ATOM    326  O2'  DC A  13      26.817  71.000  29.516  1.00  0.00    -0.388 OA
ATOM    327 'HO2  DC A  13      27.089  71.266  28.637  1.00  0.00     0.210 HD
ATOM    328  C3'  DC A  13      28.756  70.571  30.914  1.00  0.00     0.198 C 
ATOM    329  O3'  DC A  13      29.245  69.742  29.864  1.00  0.00    -0.279 OA
ATOM    330  P    DA A  14      30.349  70.313  28.844  1.00  0.00     0.408 P 
ATOM    331  OP1  DA A  14      30.829  69.172  28.023  1.00  0.00    -0.624 OA
ATOM    332  OP2  DA A  14      31.327  71.124  29.614  1.00  0.00    -0.624 OA
ATOM    333  O5'  DA A  14      29.525  71.296  27.897  1.00  0.00    -0.287 OA
ATOM    334  C5'  DA A  14      28.700  70.789  26.850  1.00  0.00     0.216 C 
ATOM    335  C4'  DA A  14      28.200  71.923  25.986  1.00  0.00     0.180 C 
ATOM    336  O4'  DA A  14      27.386  72.811  26.802  1.00  0.00    -0.353 OA
ATOM    337  C1'  DA A  14      27.672  74.158  26.473  1.00  0.00     0.262 C 
ATOM    338  N9   DA A  14      28.311  74.790  27.628  1.00  0.00    -0.294 N 
ATOM    339  C4   DA A  14      28.117  76.077  28.062  1.00  0.00     0.167 A 
ATOM    340  N3   DA A  14      27.310  77.007  27.523  1.00  0.00    -0.222 NA
ATOM    341  C2   DA A  14      27.378  78.144  28.212  1.00  0.00     0.237 A 
ATOM    342  N1   DA A  14      28.107  78.435  29.296  1.00  0.00    -0.222 NA
ATOM    343  C6   DA A  14      28.907  77.479  29.813  1.00  0.00     0.155 A 
ATOM    344  N6   DA A  14      29.632  77.772  30.891  1.00  0.00    -0.382 N 
ATOM    345  H61  DA A  14      30.238  77.072  31.294  1.00  0.00     0.157 HD
ATOM    346  H62  DA A  14      29.556  78.692  31.301  1.00  0.00     0.157 HD
ATOM    347  C5   DA A  14      28.926  76.227  29.174  1.00  0.00     0.149 A 
ATOM    348  N7   DA A  14      29.618  75.053  29.438  1.00  0.00    -0.236 NA
ATOM    349  C8   DA A  14      29.220  74.235  28.494  1.00  0.00     0.214 A 
ATOM    350  C2'  DA A  14      28.547  74.143  25.221  1.00  0.00     0.199 C 
ATOM    351  O2'  DA A  14      27.711  74.116  24.080  1.00  0.00    -0.388 OA
ATOM    352 'HO2  DA A  14      28.022  73.400  23.526  1.00  0.00     0.210 HD
ATOM    353  C3'  DA A  14      29.281  72.820  25.397  1.00  0.00     0.198 C 
ATOM    354  O3'  DA A  14      29.777  72.308  24.162  1.00  0.00    -0.279 OA
ATOM    355  P    DG A  15      31.268  72.682  23.684  1.00  0.00     0.408 P 
ATOM    356  OP1  DG A  15      31.405  72.234  22.274  1.00  0.00    -0.624 OA
ATOM    357  OP2  DG A  15      32.223  72.188  24.706  1.00  0.00    -0.624 OA
ATOM    358  O5'  DG A  15      31.293  74.276  23.705  1.00  0.00    -0.287 OA
ATOM    359  C5'  DG A  15      30.559  75.036  22.746  1.00  0.00     0.216 C 
ATOM    360  C4'  DG A  15      30.632  76.507  23.081  1.00  0.00     0.180 C 
ATOM    361  O4'  DG A  15      30.045  76.720  24.394  1.00  0.00    -0.353 OA
ATOM    362  C1'  DG A  15      30.814  77.663  25.117  1.00  0.00     0.262 C 
ATOM    363  N9   DG A  15      31.382  76.996  26.284  1.00  0.00    -0.293 N 
ATOM    364  C4   DG A  15      31.680  77.576  27.495  1.00  0.00     0.187 A 
ATOM    365  N3   DG A  15      31.495  78.873  27.820  1.00  0.00    -0.044 NA
ATOM    366  C2   DG A  15      31.880  79.130  29.056  1.00  0.00     0.703 A 
ATOM    367  N2   DG A  15      31.763  80.369  29.543  1.00  0.00    -0.233 N 
ATOM    368  H21  DG A  15      31.381  81.097  28.958  1.00  0.00     0.174 HD
ATOM    369  H22  DG A  15      32.059  80.578  30.486  1.00  0.00     0.174 HD
ATOM    370  N1   DG A  15      32.406  78.194  29.908  1.00  0.00    -0.153 N 
ATOM    371  H1   DG A  15      32.673  78.495  30.833  1.00  0.00     0.187 HD
ATOM    372  C6   DG A  15      32.604  76.853  29.599  1.00  0.00     0.292 A 
ATOM    373  O6   DG A  15      33.083  76.092  30.446  1.00  0.00    -0.265 OA
ATOM    374  C5   DG A  15      32.195  76.559  28.271  1.00  0.00     0.173 A 
ATOM    375  N7   DG A  15      32.219  75.363  27.565  1.00  0.00    -0.234 NA
ATOM    376  C8   DG A  15      31.729  75.671  26.396  1.00  0.00     0.214 A 
ATOM    377  C2'  DG A  15      31.865  78.234  24.165  1.00  0.00     0.199 C 
ATOM    378  O2'  DG A  15      31.326  79.374  23.522  1.00  0.00    -0.388 OA
ATOM    379 'HO2  DG A  15      31.316  79.177  22.585  1.00  0.00     0.210 HD
ATOM    380  C3'  DG A  15      32.040  77.080  23.185  1.00  0.00     0.198 C 
ATOM    381  O3'  DG A  15      32.518  77.515  21.915  1.00  0.00    -0.279 OA
ATOM    382  P    DT A  16      33.925  76.971  21.358  1.00  0.00     0.408 P 
ATOM    383  OP1  DT A  16      34.062  77.455  19.961  1.00  0.00    -0.624 OA
ATOM    384  OP2  DT A  16      34.017  75.516  21.642  1.00  0.00    -0.624 OA
ATOM    385  O5'  DT A  16      35.009  77.726  22.249  1.00  0.00    -0.287 OA
ATOM    386  C5'  DT A  16      34.980  79.145  22.396  1.00  0.00     0.216 C 
ATOM    387  C4'  DT A  16      36.223  79.620  23.112  1.00  0.00     0.180 C 
ATOM    388  O4'  DT A  16      36.578  80.932  22.603  1.00  0.00    -0.353 OA
ATOM    389  C1'  DT A  16      37.038  81.752  23.661  1.00  0.00     0.264 C 
ATOM    390  N1   DT A  16      36.143  82.913  23.767  1.00  0.00    -0.280 N 
ATOM    391  C6   DT A  16      34.803  82.814  23.465  1.00  0.00     0.104 A 
ATOM    392  C2   DT A  16      36.692  84.114  24.176  1.00  0.00     0.331 A 
ATOM    393  O2   DT A  16      37.871  84.242  24.454  1.00  0.00    -0.246 OA
ATOM    394  N3   DT A  16      35.811  85.161  24.246  1.00  0.00    -0.275 N 
ATOM    395  H3   DT A  16      36.187  86.046  24.551  1.00  0.00     0.173 HD
ATOM    396  C4   DT A  16      34.467  85.135  23.955  1.00  0.00     0.250 A 
ATOM    397  O4   DT A  16      33.810  86.172  24.038  1.00  0.00    -0.268 OA
ATOM    398  C5   DT A  16      33.972  83.858  23.544  1.00  0.00     0.092 A 
ATOM    399  C2'  DT A  16      37.098  80.896  24.928  1.00  0.00     0.199 C 
ATOM    400  O2'  DT A  16      38.399  80.350  25.043  1.00  0.00    -0.388 OA
ATOM    401 'HO2  DT A  16      38.313  79.405  24.914  1.00  0.00     0.210 HD
ATOM    402  C3'  DT A  16      36.073  79.810  24.616  1.00  0.00     0.198 C 
ATOM    403  O3'  DT A  16      36.344  78.599  25.317  1.00  0.00    -0.279 OA
ATOM    404  P    DC A  17      35.639  78.317  26.735  1.00  0.00     0.408 P 
ATOM    405  OP1  DC A  17      36.696  77.852  27.668  1.00  0.00    -0.624 OA
ATOM    406  OP2  DC A  17      34.448  77.466  26.496  1.00  0.00    -0.624 OA
ATOM    407  O5'  DC A  17      35.137  79.753  27.212  1.00  0.00    -0.287 OA
ATOM    408  C5'  DC A  17      35.449  80.253  28.514  1.00  0.00     0.216 C 
ATOM    409  C4'  DC A  17      35.580  81.762  28.481  1.00  0.00     0.180 C 
ATOM    410  O4'  DC A  17      35.327  82.230  27.126  1.00  0.00    -0.353 OA
ATOM    411  C1'  DC A  17      34.441  83.333  27.156  1.00  0.00     0.264 C 
ATOM    412  N1   DC A  17      33.139  82.896  26.624  1.00  0.00    -0.278 N 
ATOM    413  C6   DC A  17      32.853  81.568  26.471  1.00  0.00     0.102 A 
ATOM    414  C2   DC A  17      32.194  83.865  26.274  1.00  0.00     0.352 A 
ATOM    415  O2   DC A  17      32.477  85.062  26.424  1.00  0.00    -0.244 OA
ATOM    416  N3   DC A  17      30.997  83.474  25.781  1.00  0.00    -0.177 NA
ATOM    417  C4   DC A  17      30.729  82.176  25.637  1.00  0.00     0.128 A 
ATOM    418  N4   DC A  17      29.537  81.837  25.148  1.00  0.00    -0.384 N 
ATOM    419  H41  DC A  17      29.303  80.862  25.025  1.00  0.00     0.157 HD
ATOM    420  H42  DC A  17      28.875  82.558  24.898  1.00  0.00     0.157 HD
ATOM    421  C5   DC A  17      31.673  81.167  25.986  1.00  0.00     0.067 A 
ATOM    422  C2'  DC A  17      34.389  83.823  28.602  1.00  0.00     0.199 C 
ATOM    423  O2'  DC A  17      35.469  84.713  28.819  1.00  0.00    -0.388 OA
ATOM    424 'HO2  DC A  17      36.033  84.306  29.478  1.00  0.00     0.210 HD
ATOM    425  C3'  DC A  17      34.587  82.515  29.359  1.00  0.00     0.198 C 
ATOM    426  O3'  DC A  17      35.105  82.721  30.671  1.00  0.00    -0.279 OA
ATOM    427  P    DG A  18      34.397  82.017  31.932  1.00  0.00     0.408 P 
ATOM    428  OP1  DG A  18      35.347  82.083  33.070  1.00  0.00    -0.624 OA
ATOM    429  OP2  DG A  18      33.860  80.699  31.499  1.00  0.00    -0.624 OA
ATOM    430  O5'  DG A  18      33.163  82.969  32.264  1.00  0.00    -0.287 OA
ATOM    431  C5'  DG A  18      32.138  82.556  33.166  1.00  0.00     0.216 C 
ATOM    432  C4'  DG A  18      31.261  83.732  33.529  1.00  0.00     0.180 C 
ATOM    433  O4'  DG A  18      30.143  83.774  32.605  1.00  0.00    -0.353 OA
ATOM    434  C1'  DG A  18      28.948  83.418  33.274  1.00  0.00     0.262 C 
ATOM    435  N9   DG A  18      28.263  82.414  32.467  1.00  0.00    -0.293 N 
ATOM    436  C4   DG A  18      27.083  82.580  31.782  1.00  0.00     0.187 A 
ATOM    437  N3   DG A  18      26.343  83.707  31.739  1.00  0.00    -0.044 NA
ATOM    438  C2   DG A  18      25.261  83.558  30.997  1.00  0.00     0.703 A 
ATOM    439  N2   DG A  18      24.414  84.580  30.850  1.00  0.00    -0.233 N 
ATOM    440  H21  DG A  18      24.612  85.458  31.307  1.00  0.00     0.174 HD
ATOM    441  H22  DG A  18      23.574  84.472  30.302  1.00  0.00     0.174 HD
ATOM    442  N1   DG A  18      24.928  82.397  30.346  1.00  0.00    -0.153 N 
ATOM    443  H1   DG A  18      24.078  82.384  29.806  1.00  0.00     0.187 HD
ATOM    444  C6   DG A  18      25.675  81.225  30.373  1.00  0.00     0.292 A 
ATOM    445  O6   DG A  18      25.284  80.234  29.746  1.00  0.00    -0.265 OA
ATOM    446  C5   DG A  18      26.842  81.368  31.170  1.00  0.00     0.173 A 
ATOM    447  N7   DG A  18      27.849  80.458  31.464  1.00  0.00    -0.234 NA
ATOM    448  C8   DG A  18      28.666  81.121  32.235  1.00  0.00     0.214 A 
ATOM    449  C2'  DG A  18      29.324  82.932  34.674  1.00  0.00     0.199 C 
ATOM    450  O2'  DG A  18      28.329  83.358  35.586  1.00  0.00    -0.388 OA
ATOM    451 'HO2  DG A  18      28.560  84.255  35.834  1.00  0.00     0.210 HD
ATOM    452  C3'  DG A  18      30.634  83.674  34.915  1.00  0.00     0.198 C 
ATOM    453  O3'  DG A  18      30.427  84.980  35.447  1.00  0.00    -0.279 OA
ATOM    454  P    DA A  19      31.593  85.690  36.299  1.00  0.00     0.408 P 
ATOM    455  OP1  DA A  19      32.600  86.204  35.336  1.00  0.00    -0.624 OA
ATOM    456  OP2  DA A  19      32.014  84.756  37.374  1.00  0.00    -0.624 OA
ATOM    457  O5'  DA A  19      30.870  86.941  36.972  1.00  0.00    -0.287 OA
ATOM    458  C5'  DA A  19      30.878  87.122  38.387  1.00  0.00     0.216 C 
ATOM    459  C4'  DA A  19      30.484  88.540  38.735  1.00  0.00     0.180 C 
ATOM    460  O4'  DA A  19      31.559  89.436  38.332  1.00  0.00    -0.353 OA
ATOM    461  C1'  DA A  19      31.012  90.590  37.718  1.00  0.00     0.262 C 
ATOM    462  N9   DA A  19      31.349  90.556  36.296  1.00  0.00    -0.294 N 
ATOM    463  C4   DA A  19      31.393  91.631  35.440  1.00  0.00     0.167 A 
ATOM    464  N3   DA A  19      31.144  92.919  35.734  1.00  0.00    -0.222 NA
ATOM    465  C2   DA A  19      31.281  93.682  34.651  1.00  0.00     0.237 A 
ATOM    466  N1   DA A  19      31.614  93.330  33.403  1.00  0.00    -0.222 NA
ATOM    467  C6   DA A  19      31.857  92.029  33.142  1.00  0.00     0.155 A 
ATOM    468  N6   DA A  19      32.185  91.680  31.898  1.00  0.00    -0.382 N 
ATOM    469  H61  DA A  19      32.368  90.710  31.683  1.00  0.00     0.157 HD
ATOM    470  H62  DA A  19      32.250  92.386  31.180  1.00  0.00     0.157 HD
ATOM    471  C5   DA A  19      31.746  91.117  34.206  1.00  0.00     0.149 A 
ATOM    472  N7   DA A  19      31.925  89.743  34.281  1.00  0.00    -0.236 NA
ATOM    473  C8   DA A  19      31.679  89.461  35.536  1.00  0.00     0.214 A 
ATOM    474  C2'  DA A  19      29.511  90.572  37.995  1.00  0.00     0.199 C 
ATOM    475  O2'  DA A  19      29.275  91.161  39.261  1.00  0.00    -0.388 OA
ATOM    476 'HO2  DA A  19      28.755  90.533  39.765  1.00  0.00     0.210 HD
ATOM    477  C3'  DA A  19      29.245  89.073  38.026  1.00  0.00     0.198 C 
ATOM    478  O3'  DA A  19      28.049  88.747  38.729  1.00  0.00    -0.279 OA
ATOM    479  P    DT A  20      26.637  88.777  37.959  1.00  0.00     0.408 P 
ATOM    480  OP1  DT A  20      25.572  88.669  38.989  1.00  0.00    -0.624 OA
ATOM    481  OP2  DT A  20      26.685  87.791  36.849  1.00  0.00    -0.624 OA
ATOM    482  O5'  DT A  20      26.572  90.239  37.327  1.00  0.00    -0.287 OA
ATOM    483  C5'  DT A  20      26.291  91.380  38.138  1.00  0.00     0.216 C 
ATOM    484  C4'  DT A  20      26.397  92.644  37.317  1.00  0.00     0.180 C 
ATOM    485  O4'  DT A  20      27.718  92.712  36.711  1.00  0.00    -0.353 OA
ATOM    486  C1'  DT A  20      27.619  93.280  35.415  1.00  0.00     0.264 C 
ATOM    487  N1   DT A  20      28.080  92.287  34.434  1.00  0.00    -0.280 N 
ATOM    488  C6   DT A  20      28.033  90.937  34.705  1.00  0.00     0.104 A 
ATOM    489  C2   DT A  20      28.560  92.754  33.224  1.00  0.00     0.331 A 
ATOM    490  O2   DT A  20      28.619  93.937  32.946  1.00  0.00    -0.246 OA
ATOM    491  N3   DT A  20      28.970  91.781  32.349  1.00  0.00    -0.275 N 
ATOM    492  H3   DT A  20      29.321  92.100  31.461  1.00  0.00     0.173 HD
ATOM    493  C4   DT A  20      28.952  90.422  32.554  1.00  0.00     0.250 A 
ATOM    494  O4   DT A  20      29.356  89.673  31.665  1.00  0.00    -0.268 OA
ATOM    495  C5   DT A  20      28.444  90.018  33.827  1.00  0.00     0.092 A 
ATOM    496  C2'  DT A  20      26.167  93.709  35.211  1.00  0.00     0.199 C 
ATOM    497  O2'  DT A  20      26.023  95.047  35.652  1.00  0.00    -0.388 OA
ATOM    498 'HO2  DT A  20      25.359  95.035  36.342  1.00  0.00     0.210 HD
ATOM    499  C3'  DT A  20      25.442  92.742  36.136  1.00  0.00     0.198 C 
ATOM    500  O3'  DT A  20      24.160  93.222  36.529  1.00  0.00    -0.279 OA
ATOM    501  P    DC A  21      22.849  92.737  35.735  1.00  0.00     0.408 P 
ATOM    502  OP1  DC A  21      22.739  93.567  34.510  1.00  0.00    -0.624 OA
ATOM    503  OP2  DC A  21      21.718  92.699  36.699  1.00  0.00    -0.624 OA
ATOM    504  O5'  DC A  21      23.190  91.240  35.305  1.00  0.00    -0.287 OA
ATOM    505  C5'  DC A  21      22.157  90.328  34.937  1.00  0.00     0.216 C 
ATOM    506  C4'  DC A  21      22.746  89.117  34.249  1.00  0.00     0.180 C 
ATOM    507  O4'  DC A  21      23.179  89.510  32.914  1.00  0.00    -0.353 OA
ATOM    508  C1'  DC A  21      24.516  89.111  32.719  1.00  0.00     0.264 C 
ATOM    509  N1   DC A  21      25.153  90.050  31.778  1.00  0.00    -0.278 N 
ATOM    510  C6   DC A  21      25.525  89.634  30.530  1.00  0.00     0.102 A 
ATOM    511  C2   DC A  21      25.371  91.375  32.174  1.00  0.00     0.352 A 
ATOM    512  O2   DC A  21      25.029  91.728  33.311  1.00  0.00    -0.244 OA
ATOM    513  N3   DC A  21      25.949  92.236  31.307  1.00  0.00    -0.177 NA
ATOM    514  C4   DC A  21      26.306  91.820  30.092  1.00  0.00     0.128 A 
ATOM    515  N4   DC A  21      26.873  92.706  29.272  1.00  0.00    -0.384 N 
ATOM    516  H41  DC A  21      27.157  92.430  28.344  1.00  0.00     0.157 HD
ATOM    517  H42  DC A  21      27.008  93.655  29.587  1.00  0.00     0.157 HD
ATOM    518  C5   DC A  21      26.099  90.477  29.663  1.00  0.00     0.067 A 
ATOM    519  C2'  DC A  21      25.139  89.067  34.110  1.00  0.00     0.199 C 
ATOM    520  O2'  DC A  21      26.234  88.169  34.089  1.00  0.00    -0.388 OA
ATOM    521 'HO2  DC A  21      26.095  87.543  34.800  1.00  0.00     0.210 HD
ATOM    522  C3'  DC A  21      23.976  88.509  34.926  1.00  0.00     0.198 C 
ATOM    523  O3'  DC A  21      23.938  87.082  34.891  1.00  0.00    -0.279 OA
ATOM    524  P    DC A  22      23.122  86.272  36.017  1.00  0.00     0.408 P 
ATOM    525  OP1  DC A  22      22.194  87.218  36.686  1.00  0.00    -0.624 OA
ATOM    526  OP2  DC A  22      24.100  85.505  36.832  1.00  0.00    -0.624 OA
ATOM    527  O5'  DC A  22      22.250  85.228  35.185  1.00  0.00    -0.287 OA
ATOM    528  C5'  DC A  22      21.234  85.670  34.284  1.00  0.00     0.216 C 
ATOM    529  C4'  DC A  22      20.907  84.582  33.289  1.00  0.00     0.180 C 
ATOM    530  O4'  DC A  22      22.096  84.306  32.496  1.00  0.00    -0.353 OA
ATOM    531  C1'  DC A  22      22.287  82.909  32.387  1.00  0.00     0.264 C 
ATOM    532  N1   DC A  22      23.459  82.533  33.195  1.00  0.00    -0.278 N 
ATOM    533  C6   DC A  22      24.146  83.469  33.917  1.00  0.00     0.102 A 
ATOM    534  C2   DC A  22      23.863  81.194  33.214  1.00  0.00     0.352 A 
ATOM    535  O2   DC A  22      23.227  80.366  32.548  1.00  0.00    -0.244 OA
ATOM    536  N3   DC A  22      24.936  80.838  33.954  1.00  0.00    -0.177 NA
ATOM    537  C4   DC A  22      25.598  81.760  34.654  1.00  0.00     0.128 A 
ATOM    538  N4   DC A  22      26.648  81.359  35.367  1.00  0.00    -0.384 N 
ATOM    539  H41  DC A  22      27.174  82.033  35.908  1.00  0.00     0.157 HD
ATOM    540  H42  DC A  22      26.916  80.385  35.363  1.00  0.00     0.157 HD
ATOM    541  C5   DC A  22      25.212  83.131  34.652  1.00  0.00     0.067 A 
ATOM    542  C2'  DC A  22      20.986  82.248  32.838  1.00  0.00     0.199 C 
ATOM    543  O2'  DC A  22      20.098  82.203  31.737  1.00  0.00    -0.388 OA
ATOM    544 'HO2  DC A  22      19.284  82.618  32.023  1.00  0.00     0.210 HD
ATOM    545  C3'  DC A  22      20.506  83.239  33.890  1.00  0.00     0.198 C 
ATOM    546  O3'  DC A  22      19.100  83.159  34.105  1.00  0.00    -0.279 OA
ATOM    547  P    DC A  23      18.511  82.109  35.173  1.00  0.00     0.408 P 
ATOM    548  OP1  DC A  23      17.033  82.252  35.162  1.00  0.00    -0.624 OA
ATOM    549  OP2  DC A  23      19.254  82.274  36.448  1.00  0.00    -0.624 OA
ATOM    550  O5'  DC A  23      18.879  80.685  34.562  1.00  0.00    -0.287 OA
ATOM    551  C5'  DC A  23      18.384  80.282  33.285  1.00  0.00     0.216 C 
ATOM    552  C4'  DC A  23      18.633  78.806  33.068  1.00  0.00     0.180 C 
ATOM    553  O4'  DC A  23      20.007  78.610  32.638  1.00  0.00    -0.353 OA
ATOM    554  C1'  DC A  23      20.507  77.396  33.177  1.00  0.00     0.264 C 
ATOM    555  N1   DC A  23      21.664  77.707  34.033  1.00  0.00    -0.278 N 
ATOM    556  C6   DC A  23      21.733  78.890  34.716  1.00  0.00     0.102 A 
ATOM    557  C2   DC A  23      22.693  76.768  34.145  1.00  0.00     0.352 A 
ATOM    558  O2   DC A  23      22.608  75.706  33.511  1.00  0.00    -0.244 OA
ATOM    559  N3   DC A  23      23.754  77.040  34.938  1.00  0.00    -0.177 NA
ATOM    560  C4   DC A  23      23.810  78.195  35.602  1.00  0.00     0.128 A 
ATOM    561  N4   DC A  23      24.871  78.416  36.376  1.00  0.00    -0.384 N 
ATOM    562  H41  DC A  23      24.945  79.278  36.894  1.00  0.00     0.157 HD
ATOM    563  H42  DC A  23      25.597  77.716  36.444  1.00  0.00     0.157 HD
ATOM    564  C5   DC A  23      22.779  79.173  35.504  1.00  0.00     0.067 A 
ATOM    565  C2'  DC A  23      19.359  76.721  33.928  1.00  0.00     0.199 C 
ATOM    566  O2'  DC A  23      18.675  75.864  33.031  1.00  0.00    -0.388 OA
ATOM    567 'HO2  DC A  23      17.776  76.192  32.976  1.00  0.00     0.210 HD
ATOM    568  C3'  DC A  23      18.504  77.925  34.302  1.00  0.00     0.198 C 
ATOM    569  O3'  DC A  23      17.147  77.574  34.564  1.00  0.00    -0.279 OA
ATOM    570  P    DG A  24      16.672  77.299  36.076  1.00  0.00     0.408 P 
ATOM    571  OP1  DG A  24      15.233  76.934  36.028  1.00  0.00    -0.624 OA
ATOM    572  OP2  DG A  24      17.111  78.438  36.922  1.00  0.00    -0.624 OA
ATOM    573  O5'  DG A  24      17.494  76.003  36.509  1.00  0.00    -0.287 OA
ATOM    574  C5'  DG A  24      17.289  74.752  35.854  1.00  0.00     0.216 C 
ATOM    575  C4'  DG A  24      18.420  73.802  36.175  1.00  0.00     0.180 C 
ATOM    576  O4'  DG A  24      19.686  74.465  35.947  1.00  0.00    -0.353 OA
ATOM    577  C1'  DG A  24      20.672  73.881  36.778  1.00  0.00     0.262 C 
ATOM    578  N9   DG A  24      21.402  74.949  37.455  1.00  0.00    -0.293 N 
ATOM    579  C4   DG A  24      22.477  74.790  38.294  1.00  0.00     0.187 A 
ATOM    580  N3   DG A  24      23.044  73.616  38.639  1.00  0.00    -0.044 NA
ATOM    581  C2   DG A  24      24.064  73.783  39.461  1.00  0.00     0.703 A 
ATOM    582  N2   DG A  24      24.738  72.718  39.902  1.00  0.00    -0.233 N 
ATOM    583  H21  DG A  24      24.454  71.797  39.597  1.00  0.00     0.174 HD
ATOM    584  H22  DG A  24      25.522  72.824  40.532  1.00  0.00     0.174 HD
ATOM    585  N1   DG A  24      24.494  75.004  39.910  1.00  0.00    -0.153 N 
ATOM    586  H1   DG A  24      25.285  75.021  40.535  1.00  0.00     0.187 HD
ATOM    587  C6   DG A  24      23.926  76.227  39.571  1.00  0.00     0.292 A 
ATOM    588  O6   DG A  24      24.393  77.272  40.037  1.00  0.00    -0.265 OA
ATOM    589  C5   DG A  24      22.828  76.064  38.686  1.00  0.00     0.173 A 
ATOM    590  N7   DG A  24      21.989  77.007  38.106  1.00  0.00    -0.234 NA
ATOM    591  C8   DG A  24      21.161  76.300  37.387  1.00  0.00     0.214 A 
ATOM    592  C2'  DG A  24      19.975  72.917  37.743  1.00  0.00     0.199 C 
ATOM    593  O2'  DG A  24      20.153  71.597  37.266  1.00  0.00    -0.388 OA
ATOM    594 'HO2  DG A  24      19.279  71.219  37.174  1.00  0.00     0.210 HD
ATOM    595  C3'  DG A  24      18.515  73.351  37.624  1.00  0.00     0.198 C 
ATOM    596  O3'  DG A  24      17.609  72.285  37.903  1.00  0.00    -0.279 OA
ATOM    597  P    DC A  25      17.082  72.055  39.406  1.00  0.00     0.408 P 
ATOM    598  OP1  DC A  25      16.229  70.840  39.398  1.00  0.00    -0.624 OA
ATOM    599  OP2  DC A  25      16.525  73.339  39.905  1.00  0.00    -0.624 OA
ATOM    600  O5'  DC A  25      18.403  71.728  40.234  1.00  0.00    -0.287 OA
ATOM    601  C5'  DC A  25      19.153  70.542  39.978  1.00  0.00     0.216 C 
ATOM    602  C4'  DC A  25      20.068  70.237  41.142  1.00  0.00     0.180 C 
ATOM    603  O4'  DC A  25      21.301  70.983  40.982  1.00  0.00    -0.353 OA
ATOM    604  C1'  DC A  25      21.815  71.328  42.255  1.00  0.00     0.264 C 
ATOM    605  N1   DC A  25      21.999  72.788  42.301  1.00  0.00    -0.278 N 
ATOM    606  C6   DC A  25      21.156  73.623  41.621  1.00  0.00     0.102 A 
ATOM    607  C2   DC A  25      23.053  73.312  43.055  1.00  0.00     0.352 A 
ATOM    608  O2   DC A  25      23.803  72.534  43.659  1.00  0.00    -0.244 OA
ATOM    609  N3   DC A  25      23.228  74.651  43.107  1.00  0.00    -0.177 NA
ATOM    610  C4   DC A  25      22.399  75.457  42.443  1.00  0.00     0.128 A 
ATOM    611  N4   DC A  25      22.610  76.769  42.527  1.00  0.00    -0.384 N 
ATOM    612  H41  DC A  25      22.006  77.415  42.040  1.00  0.00     0.157 HD
ATOM    613  H42  DC A  25      23.379  77.117  43.083  1.00  0.00     0.157 HD
ATOM    614  C5   DC A  25      21.317  74.952  41.665  1.00  0.00     0.067 A 
ATOM    615  C2'  DC A  25      20.845  70.801  43.316  1.00  0.00     0.199 C 
ATOM    616  O2'  DC A  25      21.312  69.542  43.765  1.00  0.00    -0.388 OA
ATOM    617 'HO2  DC A  25      20.551  69.079  44.116  1.00  0.00     0.210 HD
ATOM    618  C3'  DC A  25      19.558  70.656  42.513  1.00  0.00     0.198 C 
ATOM    619  O3'  DC A  25      18.682  69.676  43.067  1.00  0.00    -0.279 OA
ATOM    620  P    DT A  26      17.305  70.131  43.764  1.00  0.00     0.408 P 
ATOM    621  OP1  DT A  26      16.383  68.968  43.693  1.00  0.00    -0.624 OA
ATOM    622  OP2  DT A  26      16.881  71.437  43.196  1.00  0.00    -0.624 OA
ATOM    623  O5'  DT A  26      17.697  70.345  45.294  1.00  0.00    -0.287 OA
ATOM    624  C5'  DT A  26      18.225  71.588  45.758  1.00  0.00     0.216 C 
ATOM    625  C4'  DT A  26      19.404  71.343  46.670  1.00  0.00     0.180 C 
ATOM    626  O4'  DT A  26      20.616  71.771  45.989  1.00  0.00    -0.353 OA
ATOM    627  C1'  DT A  26      21.455  72.466  46.894  1.00  0.00     0.264 C 
ATOM    628  N1   DT A  26      21.525  73.873  46.473  1.00  0.00    -0.280 N 
ATOM    629  C6   DT A  26      20.664  74.378  45.525  1.00  0.00     0.104 A 
ATOM    630  C2   DT A  26      22.484  74.677  47.061  1.00  0.00     0.331 A 
ATOM    631  O2   DT A  26      23.265  74.271  47.902  1.00  0.00    -0.246 OA
ATOM    632  N3   DT A  26      22.495  75.979  46.630  1.00  0.00    -0.275 N 
ATOM    633  H3   DT A  26      23.189  76.585  47.044  1.00  0.00     0.173 HD
ATOM    634  C4   DT A  26      21.666  76.546  45.691  1.00  0.00     0.250 A 
ATOM    635  O4   DT A  26      21.803  77.735  45.402  1.00  0.00    -0.268 OA
ATOM    636  C5   DT A  26      20.703  75.653  45.129  1.00  0.00     0.092 A 
ATOM    637  C2'  DT A  26      20.876  72.265  48.294  1.00  0.00     0.199 C 
ATOM    638  O2'  DT A  26      21.400  71.067  48.837  1.00  0.00    -0.388 OA
ATOM    639 'HO2  DT A  26      20.650  70.505  49.039  1.00  0.00     0.210 HD
ATOM    640  C3'  DT A  26      19.392  72.122  47.979  1.00  0.00     0.198 C 
ATOM    641  O3'  DT A  26      18.687  71.416  48.999  1.00  0.00    -0.279 OA
ATOM    642  P    DT A  27      17.449  72.116  49.752  1.00  0.00     0.408 P 
ATOM    643  OP1  DT A  27      16.574  71.032  50.265  1.00  0.00    -0.624 OA
ATOM    644  OP2  DT A  27      16.880  73.161  48.863  1.00  0.00    -0.624 OA
ATOM    645  O5'  DT A  27      18.122  72.840  51.002  1.00  0.00    -0.287 OA
ATOM    646  C5'  DT A  27      18.822  72.093  51.996  1.00  0.00     0.216 C 
ATOM    647  C4'  DT A  27      19.626  73.023  52.875  1.00  0.00     0.180 C 
ATOM    648  O4'  DT A  27      20.788  73.486  52.133  1.00  0.00    -0.353 OA
ATOM    649  C1'  DT A  27      21.012  74.860  52.403  1.00  0.00     0.264 C 
ATOM    650  N1   DT A  27      20.784  75.620  51.164  1.00  0.00    -0.280 N 
ATOM    651  C6   DT A  27      19.905  75.174  50.201  1.00  0.00     0.104 A 
ATOM    652  C2   DT A  27      21.478  76.805  51.000  1.00  0.00     0.331 A 
ATOM    653  O2   DT A  27      22.268  77.231  51.823  1.00  0.00    -0.246 OA
ATOM    654  N3   DT A  27      21.213  77.475  49.833  1.00  0.00    -0.275 N 
ATOM    655  H3   DT A  27      21.707  78.344  49.695  1.00  0.00     0.173 HD
ATOM    656  C4   DT A  27      20.346  77.092  48.836  1.00  0.00     0.250 A 
ATOM    657  O4   DT A  27      20.199  77.817  47.853  1.00  0.00    -0.268 OA
ATOM    658  C5   DT A  27      19.672  75.854  49.075  1.00  0.00     0.092 A 
ATOM    659  C2'  DT A  27      20.074  75.253  53.542  1.00  0.00     0.199 C 
ATOM    660  O2'  DT A  27      20.718  74.980  54.774  1.00  0.00    -0.388 OA
ATOM    661 'HO2  DT A  27      20.102  74.469  55.300  1.00  0.00     0.210 HD
ATOM    662  C3'  DT A  27      18.913  74.299  53.302  1.00  0.00     0.198 C 
ATOM    663  O3'  DT A  27      18.120  74.100  54.468  1.00  0.00    -0.279 OA
ATOM    664  P    DC A  28      16.878  75.078  54.764  1.00  0.00     0.408 P 
ATOM    665  OP1  DC A  28      16.222  74.604  56.008  1.00  0.00    -0.624 OA
ATOM    666  OP2  DC A  28      16.080  75.210  53.518  1.00  0.00    -0.624 OA
ATOM    667  O5'  DC A  28      17.559  76.486  55.068  1.00  0.00    -0.287 OA
ATOM    668  C5'  DC A  28      18.435  76.651  56.180  1.00  0.00     0.216 C 
ATOM    669  C4'  DC A  28      19.036  78.039  56.173  1.00  0.00     0.180 C 
ATOM    670  O4'  DC A  28      19.667  78.290  54.891  1.00  0.00    -0.353 OA
ATOM    671  C1'  DC A  28      19.602  79.678  54.600  1.00  0.00     0.264 C 
ATOM    672  N1   DC A  28      18.949  79.857  53.292  1.00  0.00    -0.278 N 
ATOM    673  C6   DC A  28      18.333  78.812  52.660  1.00  0.00     0.102 A 
ATOM    674  C2   DC A  28      18.967  81.125  52.703  1.00  0.00     0.352 A 
ATOM    675  O2   DC A  28      19.533  82.056  53.295  1.00  0.00    -0.244 OA
ATOM    676  N3   DC A  28      18.368  81.307  51.507  1.00  0.00    -0.177 NA
ATOM    677  C4   DC A  28      17.768  80.283  50.900  1.00  0.00     0.128 A 
ATOM    678  N4   DC A  28      17.188  80.514  49.722  1.00  0.00    -0.384 N 
ATOM    679  H41  DC A  28      16.721  79.767  49.229  1.00  0.00     0.157 HD
ATOM    680  H42  DC A  28      17.219  81.444  49.326  1.00  0.00     0.157 HD
ATOM    681  C5   DC A  28      17.734  78.978  51.474  1.00  0.00     0.067 A 
ATOM    682  C2'  DC A  28      18.848  80.357  55.745  1.00  0.00     0.199 C 
ATOM    683  O2'  DC A  28      19.791  80.838  56.685  1.00  0.00    -0.388 OA
ATOM    684 'HO2  DC A  28      19.500  80.540  57.547  1.00  0.00     0.210 HD
ATOM    685  C3'  DC A  28      18.050  79.188  56.309  1.00  0.00     0.198 C 
ATOM    686  O3'  DC A  28      17.655  79.397  57.663  1.00  0.00    -0.279 OA
ATOM    687  P    DC A  29      16.281  80.170  57.986  1.00  0.00     0.408 P 
ATOM    688  OP1  DC A  29      15.939  79.887  59.403  1.00  0.00    -0.624 OA
ATOM    689  OP2  DC A  29      15.297  79.859  56.917  1.00  0.00    -0.624 OA
ATOM    690  O5'  DC A  29      16.667  81.712  57.866  1.00  0.00    -0.287 OA
ATOM    691  C5'  DC A  29      17.626  82.297  58.745  1.00  0.00     0.216 C 
ATOM    692  C4'  DC A  29      17.839  83.752  58.394  1.00  0.00     0.180 C 
ATOM    693  O4'  DC A  29      18.455  83.842  57.078  1.00  0.00    -0.353 OA
ATOM    694  C1'  DC A  29      17.939  84.970  56.389  1.00  0.00     0.264 C 
ATOM    695  N1   DC A  29      17.216  84.499  55.197  1.00  0.00    -0.278 N 
ATOM    696  C6   DC A  29      16.735  83.222  55.125  1.00  0.00     0.102 A 
ATOM    697  C2   DC A  29      17.020  85.385  54.136  1.00  0.00     0.352 A 
ATOM    698  O2   DC A  29      17.469  86.536  54.224  1.00  0.00    -0.244 OA
ATOM    699  N3   DC A  29      16.347  84.968  53.040  1.00  0.00    -0.177 NA
ATOM    700  C4   DC A  29      15.882  83.720  52.980  1.00  0.00     0.128 A 
ATOM    701  N4   DC A  29      15.226  83.354  51.879  1.00  0.00    -0.384 N 
ATOM    702  H41  DC A  29      14.858  82.419  51.790  1.00  0.00     0.157 HD
ATOM    703  H42  DC A  29      15.101  84.022  51.131  1.00  0.00     0.157 HD
ATOM    704  C5   DC A  29      16.069  82.793  54.045  1.00  0.00     0.067 A 
ATOM    705  C2'  DC A  29      17.051  85.732  57.370  1.00  0.00     0.199 C 
ATOM    706  O2'  DC A  29      17.851  86.654  58.088  1.00  0.00    -0.388 OA
ATOM    707 'HO2  DC A  29      17.563  86.619  59.001  1.00  0.00     0.210 HD
ATOM    708  C3'  DC A  29      16.580  84.596  58.267  1.00  0.00     0.198 C 
ATOM    709  O3'  DC A  29      16.111  85.057  59.531  1.00  0.00    -0.279 OA
ATOM    710  P    DC A  30      14.565  85.469  59.706  1.00  0.00     0.408 P 
ATOM    711  OP1  DC A  30      14.378  85.901  61.114  1.00  0.00    -0.624 OA
ATOM    712  OP2  DC A  30      13.723  84.375  59.156  1.00  0.00    -0.624 OA
ATOM    713  O5'  DC A  30      14.396  86.743  58.765  1.00  0.00    -0.287 OA
ATOM    714  C5'  DC A  30      15.012  87.986  59.095  1.00  0.00     0.216 C 
ATOM    715  C4'  DC A  30      14.647  89.040  58.075  1.00  0.00     0.180 C 
ATOM    716  O4'  DC A  30      15.201  88.673  56.782  1.00  0.00    -0.353 OA
ATOM    717  C1'  DC A  30      14.330  89.109  55.751  1.00  0.00     0.264 C 
ATOM    718  N1   DC A  30      13.888  87.934  54.979  1.00  0.00    -0.278 N 
ATOM    719  C6   DC A  30      13.923  86.682  55.526  1.00  0.00     0.102 A 
ATOM    720  C2   DC A  30      13.425  88.122  53.676  1.00  0.00     0.352 A 
ATOM    721  O2   DC A  30      13.407  89.267  53.202  1.00  0.00    -0.244 OA
ATOM    722  N3   DC A  30      13.009  87.054  52.962  1.00  0.00    -0.177 NA
ATOM    723  C4   DC A  30      13.045  85.836  53.502  1.00  0.00     0.128 A 
ATOM    724  N4   DC A  30      12.628  84.814  52.757  1.00  0.00    -0.384 N 
ATOM    725  H41  DC A  30      12.639  83.873  53.122  1.00  0.00     0.157 HD
ATOM    726  H42  DC A  30      12.301  84.989  51.816  1.00  0.00     0.157 HD
ATOM    727  C5   DC A  30      13.514  85.613  54.830  1.00  0.00     0.067 A 
ATOM    728  C2'  DC A  30      13.175  89.858  56.417  1.00  0.00     0.199 C 
ATOM    729  O2'  DC A  30      13.515  91.230  56.502  1.00  0.00    -0.388 OA
ATOM    730 'HO2  DC A  30      12.729  91.695  56.791  1.00  0.00     0.210 HD
ATOM    731  C3'  DC A  30      13.160  89.202  57.791  1.00  0.00     0.198 C 
ATOM    732  O3'  DC A  30      12.507  90.001  58.773  1.00  0.00    -0.279 OA
ATOM    733  P    DC A  31      10.926  89.830  59.016  1.00  0.00     0.408 P 
ATOM    734  OP1  DC A  31      10.556  90.693  60.167  1.00  0.00    -0.624 OA
ATOM    735  OP2  DC A  31      10.611  88.379  59.055  1.00  0.00    -0.624 OA
ATOM    736  O5'  DC A  31      10.266  90.443  57.701  1.00  0.00    -0.287 OA
ATOM    737  C5'  DC A  31      10.162  91.854  57.522  1.00  0.00     0.216 C 
ATOM    738  C4'  DC A  31       9.716  92.174  56.113  1.00  0.00     0.180 C 
ATOM    739  O4'  DC A  31      10.497  91.397  55.166  1.00  0.00    -0.353 OA
ATOM    740  C1'  DC A  31       9.703  91.113  54.023  1.00  0.00     0.264 C 
ATOM    741  N1   DC A  31       9.655  89.653  53.834  1.00  0.00    -0.278 N 
ATOM    742  C6   DC A  31      10.028  88.802  54.838  1.00  0.00     0.102 A 
ATOM    743  C2   DC A  31       9.217  89.147  52.607  1.00  0.00     0.352 A 
ATOM    744  O2   DC A  31       8.884  89.939  51.714  1.00  0.00    -0.244 OA
ATOM    745  N3   DC A  31       9.166  87.811  52.423  1.00  0.00    -0.177 NA
ATOM    746  C4   DC A  31       9.534  86.988  53.405  1.00  0.00     0.128 A 
ATOM    747  N4   DC A  31       9.469  85.677  53.173  1.00  0.00    -0.384 N 
ATOM    748  H41  DC A  31       9.737  85.018  53.889  1.00  0.00     0.157 HD
ATOM    749  H42  DC A  31       9.150  85.349  52.271  1.00  0.00     0.157 HD
ATOM    750  C5   DC A  31       9.986  87.473  54.667  1.00  0.00     0.067 A 
ATOM    751  C2'  DC A  31       8.327  91.740  54.251  1.00  0.00     0.199 C 
ATOM    752  O2'  DC A  31       8.318  93.035  53.681  1.00  0.00    -0.388 OA
ATOM    753 'HO2  DC A  31       7.838  93.601  54.287  1.00  0.00     0.210 HD
ATOM    754  C3'  DC A  31       8.281  91.806  55.772  1.00  0.00     0.198 C 
ATOM    755  O3'  DC A  31       7.351  92.774  56.249  1.00  0.00    -0.279 OA
ATOM    756  P    DC A  32       5.830  92.343  56.549  1.00  0.00     0.408 P 
ATOM    757  OP1  DC A  32       5.164  93.493  57.211  1.00  0.00    -0.624 OA
ATOM    758  OP2  DC A  32       5.840  91.016  57.217  1.00  0.00    -0.624 OA
ATOM    759  O5'  DC A  32       5.189  92.162  55.101  1.00  0.00    -0.287 OA
ATOM    760  C5'  DC A  32       4.889  93.293  54.286  1.00  0.00     0.216 C 
ATOM    761  C4'  DC A  32       4.349  92.845  52.947  1.00  0.00     0.180 C 
ATOM    762  O4'  DC A  32       5.327  91.989  52.296  1.00  0.00    -0.353 OA
ATOM    763  C1'  DC A  32       4.655  91.014  51.514  1.00  0.00     0.264 C 
ATOM    764  N1   DC A  32       5.064  89.678  51.976  1.00  0.00    -0.278 N 
ATOM    765  C6   DC A  32       5.640  89.503  53.203  1.00  0.00     0.102 A 
ATOM    766  C2   DC A  32       4.851  88.582  51.136  1.00  0.00     0.352 A 
ATOM    767  O2   DC A  32       4.324  88.765  50.030  1.00  0.00    -0.244 OA
ATOM    768  N3   DC A  32       5.222  87.351  51.549  1.00  0.00    -0.177 NA
ATOM    769  C4   DC A  32       5.789  87.191  52.744  1.00  0.00     0.128 A 
ATOM    770  N4   DC A  32       6.143  85.958  53.103  1.00  0.00    -0.384 N 
ATOM    771  H41  DC A  32       6.576  85.790  54.000  1.00  0.00     0.157 HD
ATOM    772  H42  DC A  32       5.977  85.190  52.467  1.00  0.00     0.157 HD
ATOM    773  C5   DC A  32       6.019  88.289  53.623  1.00  0.00     0.067 A 
ATOM    774  C2'  DC A  32       3.153  91.268  51.649  1.00  0.00     0.199 C 
ATOM    775  O2'  DC A  32       2.739  92.117  50.595  1.00  0.00    -0.388 OA
ATOM    776 'HO2  DC A  32       2.262  92.844  50.995  1.00  0.00     0.210 HD
ATOM    777  C3'  DC A  32       3.094  91.987  52.991  1.00  0.00     0.198 C 
ATOM    778  O3'  DC A  32       1.914  92.772  53.135  1.00  0.00    -0.279 OA
ATOM    779  P    DC A  33       0.564  92.093  53.686  1.00  0.00     0.408 P 
ATOM    780  OP1  DC A  33      -0.439  93.175  53.857  1.00  0.00    -0.624 OA
ATOM    781  OP2  DC A  33       0.911  91.225  54.841  1.00  0.00    -0.624 OA
ATOM    782  O5'  DC A  33       0.086  91.153  52.490  1.00  0.00    -0.287 OA
ATOM    783  C5'  DC A  33      -0.377  91.708  51.259  1.00  0.00     0.216 C 
ATOM    784  C4'  DC A  33      -0.958  90.622  50.381  1.00  0.00     0.180 C 
ATOM    785  O4'  DC A  33       0.126  89.802  49.864  1.00  0.00    -0.353 OA
ATOM    786  C1'  DC A  33      -0.262  88.439  49.862  1.00  0.00     0.264 C 
ATOM    787  N1   DC A  33       0.594  87.709  50.812  1.00  0.00    -0.278 N 
ATOM    788  C6   DC A  33       1.152  88.349  51.884  1.00  0.00     0.102 A 
ATOM    789  C2   DC A  33       0.831  86.350  50.601  1.00  0.00     0.352 A 
ATOM    790  O2   DC A  33       0.307  85.790  49.627  1.00  0.00    -0.244 OA
ATOM    791  N3   DC A  33       1.623  85.676  51.463  1.00  0.00    -0.177 NA
ATOM    792  C4   DC A  33       2.170  86.311  52.501  1.00  0.00     0.128 A 
ATOM    793  N4   DC A  33       2.951  85.606  53.319  1.00  0.00    -0.384 N 
ATOM    794  H41  DC A  33       3.389  86.044  54.116  1.00  0.00     0.157 HD
ATOM    795  H42  DC A  33       3.107  84.625  53.128  1.00  0.00     0.157 HD
ATOM    796  C5   DC A  33       1.941  87.695  52.744  1.00  0.00     0.067 A 
ATOM    797  C2'  DC A  33      -1.749  88.391  50.212  1.00  0.00     0.199 C 
ATOM    798  O2'  DC A  33      -2.501  88.513  49.019  1.00  0.00    -0.388 OA
ATOM    799 'HO2  DC A  33      -2.874  89.396  49.013  1.00  0.00     0.210 HD
ATOM    800  C3'  DC A  33      -1.885  89.635  51.080  1.00  0.00     0.198 C 
ATOM    801  O3'  DC A  33      -3.224  90.118  51.134  1.00  0.00    -0.279 OA
ATOM    802  P    DC A  34      -4.217  89.597  52.287  1.00  0.00     0.408 P 
ATOM    803  OP1  DC A  34      -5.512  90.301  52.114  1.00  0.00    -0.624 OA
ATOM    804  OP2  DC A  34      -3.508  89.675  53.590  1.00  0.00    -0.624 OA
ATOM    805  O5'  DC A  34      -4.441  88.058  51.939  1.00  0.00    -0.287 OA
ATOM    806  C5'  DC A  34      -5.083  87.666  50.727  1.00  0.00     0.216 C 
ATOM    807  C4'  DC A  34      -5.174  86.159  50.648  1.00  0.00     0.180 C 
ATOM    808  O4'  DC A  34      -3.852  85.614  50.414  1.00  0.00    -0.353 OA
ATOM    809  C1'  DC A  34      -3.757  84.335  51.012  1.00  0.00     0.264 C 
ATOM    810  N1   DC A  34      -2.579  84.320  51.895  1.00  0.00    -0.278 N 
ATOM    811  C6   DC A  34      -2.127  85.469  52.483  1.00  0.00     0.102 A 
ATOM    812  C2   DC A  34      -1.929  83.107  52.128  1.00  0.00     0.352 A 
ATOM    813  O2   DC A  34      -2.356  82.080  51.579  1.00  0.00    -0.244 OA
ATOM    814  N3   DC A  34      -0.852  83.079  52.941  1.00  0.00    -0.177 NA
ATOM    815  C4   DC A  34      -0.416  84.204  53.509  1.00  0.00     0.128 A 
ATOM    816  N4   DC A  34       0.650  84.125  54.302  1.00  0.00    -0.384 N 
ATOM    817  H41  DC A  34       1.015  84.950  54.753  1.00  0.00     0.157 HD
ATOM    818  H42  DC A  34       1.094  83.227  54.441  1.00  0.00     0.157 HD
ATOM    819  C5   DC A  34      -1.055  85.458  53.287  1.00  0.00     0.067 A 
ATOM    820  C2'  DC A  34      -5.070  84.054  51.747  1.00  0.00     0.198 C 
ATOM    821  O2'  DC A  34      -5.893  83.265  50.909  1.00  0.00    -0.388 OA
ATOM    822 'HO2  DC A  34      -6.798  83.541  51.063  1.00  0.00     0.210 HD
ATOM    823  C3'  DC A  34      -5.638  85.460  51.916  1.00  0.00     0.182 C 
ATOM    824  O3'  DC A  34      -7.064  85.461  52.047  1.00  0.00    -0.390 OA
ATOM    825 'HO3  DC A  34      -7.357  86.369  51.933  1.00  0.00     0.210 HD
ENDROOT
TORSDOF 264
ENDMDL
MODEL 5
REMARK VINA RESULT:     -12.9     35.744     49.005
REMARK  0 active torsions:
REMARK  status: ('A' for Active; 'I' for Inactive)
REMARK       I    between atoms: O5'_2  and  C5'_3 
REMARK       I    between atoms: C5'_3  and  C4'_4 
REMARK       I    between atoms: C1'_6  and  N9_9 
REMARK       I    between atoms: C2_18  and  N2_20 
REMARK       I    between atoms: C2'_7  and  O2'_23 
REMARK       I    between atoms: C3'_8  and  O3'_25 
REMARK       I    between atoms: O3'_25  and  P_26 
REMARK       I    between atoms: P_26  and  O5'_29 
REMARK       I    between atoms: O5'_29  and  C5'_30 
REMARK       I    between atoms: C5'_30  and  C4'_31 
REMARK       I    between atoms: C1'_33  and  N9_36 
REMARK       I    between atoms: C2_45  and  N2_47 
REMARK       I    between atoms: C2'_34  and  O2'_50 
REMARK       I    between atoms: C3'_35  and  O3'_52 
REMARK       I    between atoms: O3'_52  and  P_53 
REMARK       I    between atoms: P_53  and  O5'_56 
REMARK       I    between atoms: O5'_56  and  C5'_57 
REMARK       I    between atoms: C5'_57  and  C4'_58 
REMARK       I    between atoms: C1'_60  and  N9_63 
REMARK       I    between atoms: C2_72  and  N2_74 
REMARK       I    between atoms: C2'_61  and  O2'_77 
REMARK       I    between atoms: C3'_62  and  O3'_79 
REMARK       I    between atoms: O3'_79  and  P_80 
REMARK       I    between atoms: P_80  and  O5'_83 
REMARK       I    between atoms: O5'_83  and  C5'_84 
REMARK       I    between atoms: C5'_84  and  C4'_85 
REMARK       I    between atoms: C1'_87  and  N9_90 
REMARK       I    between atoms: C2_99  and  N2_101 
REMARK       I    between atoms: C2'_88  and  O2'_104 
REMARK       I    between atoms: C3'_89  and  O3'_106 
REMARK       I    between atoms: O3'_106  and  P_107 
REMARK       I    between atoms: P_107  and  O5'_110 
REMARK       I    between atoms: O5'_110  and  C5'_111 
REMARK       I    between atoms: C5'_111  and  C4'_112 
REMARK       I    between atoms: C1'_114  and  N9_117 
REMARK       I    between atoms: C2_121  and  N2_128 
REMARK       I    between atoms: C2'_115  and  O2'_131 
REMARK       I    between atoms: C3'_116  and  O3'_133 
REMARK       I    between atoms: O3'_133  and  P_134 
REMARK       I    between atoms: P_134  and  O5'_137 
REMARK       I    between atoms: O5'_137  and  C5'_138 
REMARK       I    between atoms: C5'_138  and  C4'_139 
REMARK       I    between atoms: C1'_141  and  N9_144 
REMARK       I    between atoms: C2_148  and  N2_155 
REMARK       I    between atoms: C2'_142  and  O2'_158 
REMARK       I    between atoms: C3'_143  and  O3'_160 
REMARK       I    between atoms: O3'_160  and  P_161 
REMARK       I    between atoms: P_161  and  O5'_164 
REMARK       I    between atoms: O5'_164  and  C5'_165 
REMARK       I    between atoms: C5'_165  and  C4'_166 
REMARK       I    between atoms: C1'_168  and  N9_171 
REMARK       I    between atoms: C2_175  and  N2_182 
REMARK       I    between atoms: C2'_169  and  O2'_185 
REMARK       I    between atoms: C3'_170  and  O3'_187 
REMARK       I    between atoms: O3'_187  and  P_188 
REMARK       I    between atoms: P_188  and  O5'_191 
REMARK       I    between atoms: O5'_191  and  C5'_192 
REMARK       I    between atoms: C5'_192  and  C4'_193 
REMARK       I    between atoms: C1'_195  and  N1_198 
REMARK       I    between atoms: C2'_196  and  O2'_207 
REMARK       I    between atoms: C3'_197  and  O3'_209 
REMARK       I    between atoms: O3'_209  and  P_210 
REMARK       I    between atoms: P_210  and  O5'_213 
REMARK       I    between atoms: O5'_213  and  C5'_214 
REMARK       I    between atoms: C5'_214  and  C4'_215 
REMARK       I    between atoms: C1'_217  and  N9_220 
REMARK       I    between atoms: C6_226  and  N6_229 
REMARK       I    between atoms: C2'_218  and  O2'_232 
REMARK       I    between atoms: C3'_219  and  O3'_234 
REMARK       I    between atoms: O3'_234  and  P_235 
REMARK       I    between atoms: P_235  and  O5'_238 
REMARK       I    between atoms: O5'_238  and  C5'_239 
REMARK       I    between atoms: C5'_239  and  C4'_240 
REMARK       I    between atoms: C1'_242  and  N9_245 
REMARK       I    between atoms: C2_252  and  N2_256 
REMARK       I    between atoms: C2'_243  and  O2'_259 
REMARK       I    between atoms: C3'_244  and  O3'_261 
REMARK       I    between atoms: O3'_261  and  P_262 
REMARK       I    between atoms: P_262  and  O5'_265 
REMARK       I    between atoms: O5'_265  and  C5'_266 
REMARK       I    between atoms: C5'_266  and  C4'_267 
REMARK       I    between atoms: C1'_270  and  N1_816 
REMARK       I    between atoms: C4_819  and  N4_823 
REMARK       I    between atoms: C2'_269  and  O2'_814 
REMARK       I    between atoms: C3'_268  and  O3'_272 
REMARK       I    between atoms: O3'_272  and  P_273 
REMARK       I    between atoms: P_273  and  O5'_276 
REMARK       I    between atoms: O5'_276  and  C5'_277 
REMARK       I    between atoms: C5'_277  and  C4'_278 
REMARK       I    between atoms: C1'_280  and  N1_283 
REMARK       I    between atoms: C2'_281  and  O2'_292 
REMARK       I    between atoms: C3'_282  and  O3'_294 
REMARK       I    between atoms: O3'_294  and  P_295 
REMARK       I    between atoms: P_295  and  O5'_298 
REMARK       I    between atoms: O5'_298  and  C5'_299 
REMARK       I    between atoms: C5'_299  and  C4'_300 
REMARK       I    between atoms: C1'_302  and  N1_305 
REMARK       I    between atoms: C4_308  and  N4_312 
REMARK       I    between atoms: C2'_303  and  O2'_315 
REMARK       I    between atoms: C3'_304  and  O3'_317 
REMARK       I    between atoms: O3'_317  and  P_318 
REMARK       I    between atoms: P_318  and  O5'_321 
REMARK       I    between atoms: O5'_321  and  C5'_322 
REMARK       I    between atoms: C5'_322  and  C4'_323 
REMARK       I    between atoms: C1'_325  and  N9_328 
REMARK       I    between atoms: C6_332  and  N6_337 
REMARK       I    between atoms: C2'_326  and  O2'_340 
REMARK       I    between atoms: C3'_327  and  O3'_342 
REMARK       I    between atoms: O3'_342  and  P_343 
REMARK       I    between atoms: P_343  and  O5'_346 
REMARK       I    between atoms: O5'_346  and  C5'_347 
REMARK       I    between atoms: C5'_347  and  C4'_348 
REMARK       I    between atoms: C1'_350  and  N9_353 
REMARK       I    between atoms: C2_357  and  N2_364 
REMARK       I    between atoms: C2'_351  and  O2'_367 
REMARK       I    between atoms: C3'_352  and  O3'_369 
REMARK       I    between atoms: O3'_369  and  P_370 
REMARK       I    between atoms: P_370  and  O5'_373 
REMARK       I    between atoms: O5'_373  and  C5'_374 
REMARK       I    between atoms: C5'_374  and  C4'_375 
REMARK       I    between atoms: C1'_378  and  N1_805 
REMARK       I    between atoms: C2'_377  and  O2'_803 
REMARK       I    between atoms: C3'_376  and  O3'_380 
REMARK       I    between atoms: O3'_380  and  P_381 
REMARK       I    between atoms: P_381  and  O5'_384 
REMARK       I    between atoms: O5'_384  and  C5'_385 
REMARK       I    between atoms: C5'_385  and  C4'_386 
REMARK       I    between atoms: C1'_389  and  N1_793 
REMARK       I    between atoms: C4_797  and  N4_800 
REMARK       I    between atoms: C2'_388  and  O2'_791 
REMARK       I    between atoms: C3'_387  and  O3'_391 
REMARK       I    between atoms: O3'_391  and  P_392 
REMARK       I    between atoms: P_392  and  O5'_395 
REMARK       I    between atoms: O5'_395  and  C5'_396 
REMARK       I    between atoms: C5'_396  and  C4'_397 
REMARK       I    between atoms: C1'_400  and  N9_777 
REMARK       I    between atoms: C2_784  and  N2_788 
REMARK       I    between atoms: C2'_399  and  O2'_775 
REMARK       I    between atoms: C3'_398  and  O3'_402 
REMARK       I    between atoms: O3'_402  and  P_403 
REMARK       I    between atoms: P_403  and  O5'_406 
REMARK       I    between atoms: O5'_406  and  C5'_407 
REMARK       I    between atoms: C5'_407  and  C4'_408 
REMARK       I    between atoms: C1'_410  and  N9_413 
REMARK       I    between atoms: C6_417  and  N6_422 
REMARK       I    between atoms: C2'_411  and  O2'_425 
REMARK       I    between atoms: C3'_412  and  O3'_427 
REMARK       I    between atoms: O3'_427  and  P_428 
REMARK       I    between atoms: P_428  and  O5'_431 
REMARK       I    between atoms: O5'_431  and  C5'_432 
REMARK       I    between atoms: C5'_432  and  C4'_433 
REMARK       I    between atoms: C1'_436  and  N1_766 
REMARK       I    between atoms: C2'_435  and  O2'_764 
REMARK       I    between atoms: C3'_434  and  O3'_438 
REMARK       I    between atoms: O3'_438  and  P_439 
REMARK       I    between atoms: P_439  and  O5'_442 
REMARK       I    between atoms: O5'_442  and  C5'_443 
REMARK       I    between atoms: C5'_443  and  C4'_444 
REMARK       I    between atoms: C1'_447  and  N1_754 
REMARK       I    between atoms: C4_758  and  N4_761 
REMARK       I    between atoms: C2'_446  and  O2'_752 
REMARK       I    between atoms: C3'_445  and  O3'_449 
REMARK       I    between atoms: O3'_449  and  P_450 
REMARK       I    between atoms: P_450  and  O5'_453 
REMARK       I    between atoms: O5'_453  and  C5'_454 
REMARK       I    between atoms: C5'_454  and  C4'_455 
REMARK       I    between atoms: C1'_457  and  N1_460 
REMARK       I    between atoms: C4_463  and  N4_467 
REMARK       I    between atoms: C2'_458  and  O2'_470 
REMARK       I    between atoms: C3'_459  and  O3'_472 
REMARK       I    between atoms: O3'_472  and  P_473 
REMARK       I    between atoms: P_473  and  O5'_476 
REMARK       I    between atoms: O5'_476  and  C5'_477 
REMARK       I    between atoms: C5'_477  and  C4'_478 
REMARK       I    between atoms: C1'_481  and  N1_742 
REMARK       I    between atoms: C4_746  and  N4_749 
REMARK       I    between atoms: C2'_480  and  O2'_740 
REMARK       I    between atoms: C3'_479  and  O3'_483 
REMARK       I    between atoms: O3'_483  and  P_484 
REMARK       I    between atoms: P_484  and  O5'_487 
REMARK       I    between atoms: O5'_487  and  C5'_488 
REMARK       I    between atoms: C5'_488  and  C4'_489 
REMARK       I    between atoms: C1'_491  and  N9_494 
REMARK       I    between atoms: C2_504  and  N2_505 
REMARK       I    between atoms: C2'_492  and  O2'_508 
REMARK       I    between atoms: C3'_493  and  O3'_510 
REMARK       I    between atoms: O3'_510  and  P_511 
REMARK       I    between atoms: P_511  and  O5'_514 
REMARK       I    between atoms: O5'_514  and  C5'_515 
REMARK       I    between atoms: C5'_515  and  C4'_516 
REMARK       I    between atoms: C1'_519  and  N1_730 
REMARK       I    between atoms: C4_734  and  N4_737 
REMARK       I    between atoms: C2'_518  and  O2'_728 
REMARK       I    between atoms: C3'_517  and  O3'_521 
REMARK       I    between atoms: O3'_521  and  P_522 
REMARK       I    between atoms: P_522  and  O5'_525 
REMARK       I    between atoms: O5'_525  and  C5'_526 
REMARK       I    between atoms: C5'_526  and  C4'_527 
REMARK       I    between atoms: C1'_530  and  N1_719 
REMARK       I    between atoms: C2'_529  and  O2'_717 
REMARK       I    between atoms: C3'_528  and  O3'_532 
REMARK       I    between atoms: O3'_532  and  P_533 
REMARK       I    between atoms: P_533  and  O5'_536 
REMARK       I    between atoms: O5'_536  and  C5'_537 
REMARK       I    between atoms: C5'_537  and  C4'_538 
REMARK       I    between atoms: C1'_541  and  N1_708 
REMARK       I    between atoms: C2'_540  and  O2'_706 
REMARK       I    between atoms: C3'_539  and  O3'_543 
REMARK       I    between atoms: O3'_543  and  P_544 
REMARK       I    between atoms: P_544  and  O5'_547 
REMARK       I    between atoms: O5'_547  and  C5'_548 
REMARK       I    between atoms: C5'_548  and  C4'_549 
REMARK       I    between atoms: C1'_552  and  N1_696 
REMARK       I    between atoms: C4_700  and  N4_703 
REMARK       I    between atoms: C2'_551  and  O2'_694 
REMARK       I    between atoms: C3'_550  and  O3'_554 
REMARK       I    between atoms: O3'_554  and  P_555 
REMARK       I    between atoms: P_555  and  O5'_558 
REMARK       I    between atoms: O5'_558  and  C5'_559 
REMARK       I    between atoms: C5'_559  and  C4'_560 
REMARK       I    between atoms: C1'_563  and  N1_684 
REMARK       I    between atoms: C4_687  and  N4_691 
REMARK       I    between atoms: C2'_562  and  O2'_682 
REMARK       I    between atoms: C3'_561  and  O3'_565 
REMARK       I    between atoms: O3'_565  and  P_566 
REMARK       I    between atoms: P_566  and  O5'_569 
REMARK       I    between atoms: O5'_569  and  C5'_570 
REMARK       I    between atoms: C5'_570  and  C4'_571 
REMARK       I    between atoms: C1'_574  and  N1_672 
REMARK       I    between atoms: C4_675  and  N4_679 
REMARK       I    between atoms: C2'_573  and  O2'_670 
REMARK       I    between atoms: C3'_572  and  O3'_576 
REMARK       I    between atoms: O3'_576  and  P_577 
REMARK       I    between atoms: P_577  and  O5'_580 
REMARK       I    between atoms: O5'_580  and  C5'_581 
REMARK       I    between atoms: C5'_581  and  C4'_582 
REMARK       I    between atoms: C1'_584  and  N1_587 
REMARK       I    between atoms: C4_590  and  N4_594 
REMARK       I    between atoms: C2'_585  and  O2'_597 
REMARK       I    between atoms: C3'_586  and  O3'_599 
REMARK       I    between atoms: O3'_599  and  P_600 
REMARK       I    between atoms: P_600  and  O5'_603 
REMARK       I    between atoms: O5'_603  and  C5'_604 
REMARK       I    between atoms: C5'_604  and  C4'_605 
REMARK       I    between atoms: C1'_607  and  N1_610 
REMARK       I    between atoms: C4_613  and  N4_617 
REMARK       I    between atoms: C2'_608  and  O2'_620 
REMARK       I    between atoms: C3'_609  and  O3'_622 
REMARK       I    between atoms: O3'_622  and  P_623 
REMARK       I    between atoms: P_623  and  O5'_626 
REMARK       I    between atoms: O5'_626  and  C5'_627 
REMARK       I    between atoms: C5'_627  and  C4'_628 
REMARK       I    between atoms: C1'_631  and  N1_660 
REMARK       I    between atoms: C4_663  and  N4_667 
REMARK       I    between atoms: C2'_630  and  O2'_658 
REMARK       I    between atoms: C3'_629  and  O3'_633 
REMARK       I    between atoms: O3'_633  and  P_634 
REMARK       I    between atoms: P_634  and  O5'_637 
REMARK       I    between atoms: O5'_637  and  C5'_638 
REMARK       I    between atoms: C5'_638  and  C4'_639 
REMARK       I    between atoms: C1'_641  and  N1_644 
REMARK       I    between atoms: C4_647  and  N4_651 
REMARK       I    between atoms: C2'_642  and  O2'_654 
REMARK       I    between atoms: C3'_643  and  O3'_656 
ROOT
ATOM      1 'HO5  DG A   1      37.996  94.949  -0.203  1.00  0.00     0.209 HD
ATOM      2  O5'  DG A   1      38.271  95.693   0.340  1.00  0.00    -0.398 OA
ATOM      3  C5'  DG A   1      37.213  96.654   0.287  1.00  0.00     0.198 C 
ATOM      4  C4'  DG A   1      36.354  96.450  -0.942  1.00  0.00     0.180 C 
ATOM      5  O4'  DG A   1      36.215  95.022  -1.185  1.00  0.00    -0.353 OA
ATOM      6  C1'  DG A   1      34.880  94.724  -1.552  1.00  0.00     0.262 C 
ATOM      7  N9   DG A   1      34.289  93.896  -0.504  1.00  0.00    -0.293 N 
ATOM      8  C4   DG A   1      33.052  93.297  -0.534  1.00  0.00     0.187 A 
ATOM      9  N3   DG A   1      32.157  93.371  -1.541  1.00  0.00    -0.044 NA
ATOM     10  C2   DG A   1      31.059  92.685  -1.275  1.00  0.00     0.703 A 
ATOM     11  N2   DG A   1      30.062  92.651  -2.165  1.00  0.00    -0.233 N 
ATOM     12  H21  DG A   1      30.152  93.148  -3.037  1.00  0.00     0.174 HD
ATOM     13  H22  DG A   1      29.225  92.127  -1.957  1.00  0.00     0.174 HD
ATOM     14  N1   DG A   1      30.855  91.982  -0.117  1.00  0.00    -0.153 N 
ATOM     15  H1   DG A   1      29.981  91.492  -0.016  1.00  0.00     0.187 HD
ATOM     16  C6   DG A   1      31.759  91.894   0.935  1.00  0.00     0.292 A 
ATOM     17  O6   DG A   1      31.471  91.233   1.939  1.00  0.00    -0.265 OA
ATOM     18  C5   DG A   1      32.944  92.625   0.666  1.00  0.00     0.173 A 
ATOM     19  N7   DG A   1      34.087  92.799   1.435  1.00  0.00    -0.234 NA
ATOM     20  C8   DG A   1      34.854  93.558   0.701  1.00  0.00     0.214 A 
ATOM     21  C2'  DG A   1      34.155  96.051  -1.771  1.00  0.00     0.199 C 
ATOM     22  O2'  DG A   1      34.321  96.439  -3.122  1.00  0.00    -0.388 OA
ATOM     23 'HO2  DG A   1      33.981  97.330  -3.197  1.00  0.00     0.210 HD
ATOM     24  C3'  DG A   1      34.927  96.970  -0.831  1.00  0.00     0.198 C 
ATOM     25  O3'  DG A   1      34.836  98.338  -1.220  1.00  0.00    -0.279 OA
ATOM     26  P    DG A   2      33.783  99.309  -0.489  1.00  0.00     0.408 P 
ATOM     27  OP1  DG A   2      32.841  99.799  -1.526  1.00  0.00    -0.624 OA
ATOM     28  OP2  DG A   2      34.551 100.285   0.325  1.00  0.00    -0.624 OA
ATOM     29  O5'  DG A   2      32.993  98.342   0.502  1.00  0.00    -0.287 OA
ATOM     30  C5'  DG A   2      31.697  98.682   0.995  1.00  0.00     0.216 C 
ATOM     31  C4'  DG A   2      30.647  98.403  -0.059  1.00  0.00     0.180 C 
ATOM     32  O4'  DG A   2      30.884  97.076  -0.614  1.00  0.00    -0.353 OA
ATOM     33  C1'  DG A   2      29.692  96.318  -0.561  1.00  0.00     0.262 C 
ATOM     34  N9   DG A   2      29.791  95.389   0.560  1.00  0.00    -0.293 N 
ATOM     35  C4   DG A   2      28.828  94.502   0.982  1.00  0.00     0.187 A 
ATOM     36  N3   DG A   2      27.610  94.325   0.426  1.00  0.00    -0.044 NA
ATOM     37  C2   DG A   2      26.907  93.402   1.061  1.00  0.00     0.703 A 
ATOM     38  N2   DG A   2      25.675  93.098   0.644  1.00  0.00    -0.233 N 
ATOM     39  H21  DG A   2      25.288  93.577  -0.157  1.00  0.00     0.174 HD
ATOM     40  H22  DG A   2      25.132  92.396   1.126  1.00  0.00     0.174 HD
ATOM     41  N1   DG A   2      27.360  92.710   2.154  1.00  0.00    -0.153 N 
ATOM     42  H1   DG A   2      26.743  92.028   2.566  1.00  0.00     0.187 HD
ATOM     43  C6   DG A   2      28.608  92.873   2.744  1.00  0.00     0.292 A 
ATOM     44  O6   DG A   2      28.916  92.193   3.729  1.00  0.00    -0.265 OA
ATOM     45  C5   DG A   2      29.376  93.861   2.074  1.00  0.00     0.173 A 
ATOM     46  N7   DG A   2      30.658  94.330   2.329  1.00  0.00    -0.234 NA
ATOM     47  C8   DG A   2      30.859  95.230   1.407  1.00  0.00     0.214 A 
ATOM     48  C2'  DG A   2      28.554  97.325  -0.437  1.00  0.00     0.199 C 
ATOM     49  O2'  DG A   2      28.259  97.842  -1.721  1.00  0.00    -0.388 OA
ATOM     50 'HO2  DG A   2      28.553  98.754  -1.729  1.00  0.00     0.210 HD
ATOM     51  C3'  DG A   2      29.208  98.379   0.450  1.00  0.00     0.198 C 
ATOM     52  O3'  DG A   2      28.588  99.657   0.326  1.00  0.00    -0.279 OA
ATOM     53  P    DG A   3      27.694 100.234   1.534  1.00  0.00     0.408 P 
ATOM     54  OP1  DG A   3      27.255 101.599   1.147  1.00  0.00    -0.624 OA
ATOM     55  OP2  DG A   3      28.435 100.035   2.804  1.00  0.00    -0.624 OA
ATOM     56  O5'  DG A   3      26.411  99.289   1.550  1.00  0.00    -0.287 OA
ATOM     57  C5'  DG A   3      25.472  99.307   0.476  1.00  0.00     0.216 C 
ATOM     58  C4'  DG A   3      24.394  98.275   0.708  1.00  0.00     0.180 C 
ATOM     59  O4'  DG A   3      25.002  96.957   0.742  1.00  0.00    -0.353 OA
ATOM     60  C1'  DG A   3      24.335  96.148   1.694  1.00  0.00     0.262 C 
ATOM     61  N9   DG A   3      25.303  95.730   2.703  1.00  0.00    -0.293 N 
ATOM     62  C4   DG A   3      25.081  94.842   3.728  1.00  0.00     0.187 A 
ATOM     63  N3   DG A   3      23.922  94.202   3.984  1.00  0.00    -0.044 NA
ATOM     64  C2   DG A   3      24.018  93.411   5.036  1.00  0.00     0.703 A 
ATOM     65  N2   DG A   3      22.956  92.703   5.430  1.00  0.00    -0.233 N 
ATOM     66  H21  DG A   3      22.093  92.785   4.913  1.00  0.00     0.174 HD
ATOM     67  H22  DG A   3      23.014  92.097   6.235  1.00  0.00     0.174 HD
ATOM     68  N1   DG A   3      25.159  93.256   5.779  1.00  0.00    -0.153 N 
ATOM     69  H1   DG A   3      25.123  92.626   6.565  1.00  0.00     0.187 HD
ATOM     70  C6   DG A   3      26.365  93.904   5.537  1.00  0.00     0.292 A 
ATOM     71  O6   DG A   3      27.336  93.688   6.272  1.00  0.00    -0.265 OA
ATOM     72  C5   DG A   3      26.278  94.761   4.408  1.00  0.00     0.173 A 
ATOM     73  N7   DG A   3      27.234  95.583   3.825  1.00  0.00    -0.234 NA
ATOM     74  C8   DG A   3      26.610  96.136   2.821  1.00  0.00     0.214 A 
ATOM     75  C2'  DG A   3      23.168  96.960   2.262  1.00  0.00     0.199 C 
ATOM     76  O2'  DG A   3      22.010  96.691   1.494  1.00  0.00    -0.388 OA
ATOM     77 'HO2  DG A   3      21.648  97.542   1.246  1.00  0.00     0.210 HD
ATOM     78  C3'  DG A   3      23.653  98.386   2.033  1.00  0.00     0.198 C 
ATOM     79  O3'  DG A   3      22.577  99.316   1.951  1.00  0.00    -0.279 OA
ATOM     80  P    DG A   4      22.001  99.993   3.292  1.00  0.00     0.408 P 
ATOM     81  OP1  DG A   4      20.736 100.682   2.928  1.00  0.00    -0.624 OA
ATOM     82  OP2  DG A   4      23.095 100.764   3.936  1.00  0.00    -0.624 OA
ATOM     83  O5'  DG A   4      21.644  98.755   4.229  1.00  0.00    -0.287 OA
ATOM     84  C5'  DG A   4      20.486  97.957   3.988  1.00  0.00     0.216 C 
ATOM     85  C4'  DG A   4      20.197  97.082   5.185  1.00  0.00     0.180 C 
ATOM     86  O4'  DG A   4      21.283  96.144   5.362  1.00  0.00    -0.353 OA
ATOM     87  C1'  DG A   4      21.341  95.755   6.720  1.00  0.00     0.262 C 
ATOM     88  N9   DG A   4      22.737  95.767   7.144  1.00  0.00    -0.293 N 
ATOM     89  C4   DG A   4      23.279  95.036   8.171  1.00  0.00     0.187 A 
ATOM     90  N3   DG A   4      22.612  94.175   8.967  1.00  0.00    -0.044 NA
ATOM     91  C2   DG A   4      23.402  93.621   9.866  1.00  0.00     0.703 A 
ATOM     92  N2   DG A   4      22.896  92.743  10.736  1.00  0.00    -0.233 N 
ATOM     93  H21  DG A   4      21.914  92.518  10.690  1.00  0.00     0.174 HD
ATOM     94  H22  DG A   4      23.488  92.313  11.433  1.00  0.00     0.174 HD
ATOM     95  N1   DG A   4      24.743  93.885   9.978  1.00  0.00    -0.153 N 
ATOM     96  H1   DG A   4      25.256  93.407  10.702  1.00  0.00     0.187 HD
ATOM     97  C6   DG A   4      25.455  94.764   9.170  1.00  0.00     0.292 A 
ATOM     98  O6   DG A   4      26.667  94.925   9.357  1.00  0.00    -0.265 OA
ATOM     99  C5   DG A   4      24.616  95.373   8.196  1.00  0.00     0.173 A 
ATOM    100  N7   DG A   4      24.910  96.299   7.204  1.00  0.00    -0.234 NA
ATOM    101  C8   DG A   4      23.767  96.503   6.608  1.00  0.00     0.214 A 
ATOM    102  C2'  DG A   4      20.445  96.698   7.533  1.00  0.00     0.199 C 
ATOM    103  O2'  DG A   4      19.277  95.994   7.908  1.00  0.00    -0.388 OA
ATOM    104 'HO2  DG A   4      19.073  96.258   8.809  1.00  0.00     0.210 HD
ATOM    105  C3'  DG A   4      20.128  97.803   6.522  1.00  0.00     0.198 C 
ATOM    106  O3'  DG A   4      18.839  98.375   6.726  1.00  0.00    -0.279 OA
ATOM    107  P    DG A   5      18.582  99.343   7.984  1.00  0.00     0.408 P 
ATOM    108  OP1  DG A   5      17.195  99.858   7.864  1.00  0.00    -0.624 OA
ATOM    109  OP2  DG A   5      19.715 100.299   8.080  1.00  0.00    -0.624 OA
ATOM    110  O5'  DG A   5      18.635  98.365   9.242  1.00  0.00    -0.287 OA
ATOM    111  C5'  DG A   5      19.480  98.642  10.357  1.00  0.00     0.216 C 
ATOM    112  C4'  DG A   5      19.330  97.563  11.403  1.00  0.00     0.180 C 
ATOM    113  O4'  DG A   5      20.120  96.410  11.000  1.00  0.00    -0.353 OA
ATOM    114  C1'  DG A   5      20.826  95.900  12.117  1.00  0.00     0.262 C 
ATOM    115  N9   DG A   5      22.250  96.156  11.916  1.00  0.00    -0.293 N 
ATOM    116  C4   DG A   5      23.277  95.754  12.737  1.00  0.00     0.187 A 
ATOM    117  N3   DG A   5      23.151  95.047  13.878  1.00  0.00    -0.044 NA
ATOM    118  C2   DG A   5      24.321  94.816  14.447  1.00  0.00     0.703 A 
ATOM    119  N2   DG A   5      24.378  94.131  15.591  1.00  0.00    -0.233 N 
ATOM    120  H21  DG A   5      23.524  93.793  16.010  1.00  0.00     0.174 HD
ATOM    121  H22  DG A   5      25.270  93.952  16.032  1.00  0.00     0.174 HD
ATOM    122  N1   DG A   5      25.520  95.242  13.937  1.00  0.00    -0.153 N 
ATOM    123  H1   DG A   5      26.356  95.012  14.453  1.00  0.00     0.187 HD
ATOM    124  C6   DG A   5      25.676  95.970  12.765  1.00  0.00     0.292 A 
ATOM    125  O6   DG A   5      26.809  96.301  12.393  1.00  0.00    -0.265 OA
ATOM    126  C5   DG A   5      24.428  96.229  12.141  1.00  0.00     0.173 A 
ATOM    127  N7   DG A   5      24.129  96.913  10.970  1.00  0.00    -0.234 NA
ATOM    128  C8   DG A   5      22.830  96.843  10.878  1.00  0.00     0.214 A 
ATOM    129  C2'  DG A   5      20.249  96.576  13.359  1.00  0.00     0.199 C 
ATOM    130  O2'  DG A   5      19.117  95.845  13.793  1.00  0.00    -0.388 OA
ATOM    131 'HO2  DG A   5      18.461  96.489  14.063  1.00  0.00     0.210 HD
ATOM    132  C3'  DG A   5      19.844  97.928  12.789  1.00  0.00     0.198 C 
ATOM    133  O3'  DG A   5      18.836  98.570  13.567  1.00  0.00    -0.279 OA
ATOM    134  P    DG A   6      19.233  99.778  14.553  1.00  0.00     0.408 P 
ATOM    135  OP1  DG A   6      17.970 100.324  15.113  1.00  0.00    -0.624 OA
ATOM    136  OP2  DG A   6      20.167 100.683  13.836  1.00  0.00    -0.624 OA
ATOM    137  O5'  DG A   6      20.033  99.066  15.733  1.00  0.00    -0.287 OA
ATOM    138  C5'  DG A   6      19.416  98.058  16.532  1.00  0.00     0.216 C 
ATOM    139  C4'  DG A   6      20.311  97.692  17.695  1.00  0.00     0.180 C 
ATOM    140  O4'  DG A   6      21.321  96.754  17.236  1.00  0.00    -0.353 OA
ATOM    141  C1'  DG A   6      22.544  97.004  17.908  1.00  0.00     0.262 C 
ATOM    142  N9   DG A   6      23.554  97.363  16.920  1.00  0.00    -0.293 N 
ATOM    143  C4   DG A   6      24.911  97.393  17.122  1.00  0.00     0.187 A 
ATOM    144  N3   DG A   6      25.548  97.080  18.269  1.00  0.00    -0.044 NA
ATOM    145  C2   DG A   6      26.856  97.215  18.159  1.00  0.00     0.703 A 
ATOM    146  N2   DG A   6      27.640  96.946  19.206  1.00  0.00    -0.233 N 
ATOM    147  H21  DG A   6      27.222  96.643  20.074  1.00  0.00     0.174 HD
ATOM    148  H22  DG A   6      28.643  97.048  19.132  1.00  0.00     0.174 HD
ATOM    149  N1   DG A   6      27.493  97.620  17.016  1.00  0.00    -0.153 N 
ATOM    150  H1   DG A   6      28.498  97.689  17.041  1.00  0.00     0.187 HD
ATOM    151  C6   DG A   6      26.861  97.945  15.821  1.00  0.00     0.292 A 
ATOM    152  O6   DG A   6      27.533  98.298  14.845  1.00  0.00    -0.265 OA
ATOM    153  C5   DG A   6      25.452  97.809  15.923  1.00  0.00     0.173 A 
ATOM    154  N7   DG A   6      24.453  98.028  14.983  1.00  0.00    -0.234 NA
ATOM    155  C8   DG A   6      23.348  97.748  15.619  1.00  0.00     0.214 A 
ATOM    156  C2'  DG A   6      22.292  98.110  18.934  1.00  0.00     0.199 C 
ATOM    157  O2'  DG A   6      21.933  97.516  20.167  1.00  0.00    -0.388 OA
ATOM    158 'HO2  DG A   6      22.432  97.973  20.845  1.00  0.00     0.210 HD
ATOM    159  C3'  DG A   6      21.112  98.837  18.300  1.00  0.00     0.198 C 
ATOM    160  O3'  DG A   6      20.352  99.572  19.255  1.00  0.00    -0.279 OA
ATOM    161  P    DG A   7      20.894 100.989  19.788  1.00  0.00     0.408 P 
ATOM    162  OP1  DG A   7      20.045 101.385  20.942  1.00  0.00    -0.624 OA
ATOM    163  OP2  DG A   7      21.019 101.902  18.624  1.00  0.00    -0.624 OA
ATOM    164  O5'  DG A   7      22.361 100.668  20.328  1.00  0.00    -0.287 OA
ATOM    165  C5'  DG A   7      22.634 100.604  21.729  1.00  0.00     0.216 C 
ATOM    166  C4'  DG A   7      23.987  99.971  21.975  1.00  0.00     0.180 C 
ATOM    167  O4'  DG A   7      24.490  99.390  20.746  1.00  0.00    -0.353 OA
ATOM    168  C1'  DG A   7      25.907  99.434  20.745  1.00  0.00     0.262 C 
ATOM    169  N9   DG A   7      26.348 100.081  19.513  1.00  0.00    -0.293 N 
ATOM    170  C4   DG A   7      27.645 100.378  19.163  1.00  0.00     0.187 A 
ATOM    171  N3   DG A   7      28.745 100.122  19.902  1.00  0.00    -0.044 NA
ATOM    172  C2   DG A   7      29.849 100.529  19.299  1.00  0.00     0.703 A 
ATOM    173  N2   DG A   7      31.032 100.351  19.893  1.00  0.00    -0.233 N 
ATOM    174  H21  DG A   7      31.071  99.908  20.800  1.00  0.00     0.174 HD
ATOM    175  H22  DG A   7      31.879 100.662  19.439  1.00  0.00     0.174 HD
ATOM    176  N1   DG A   7      29.875 101.137  18.071  1.00  0.00    -0.153 N 
ATOM    177  H1   DG A   7      30.776 101.407  17.708  1.00  0.00     0.187 HD
ATOM    178  C6   DG A   7      28.758 101.410  17.291  1.00  0.00     0.292 A 
ATOM    179  O6   DG A   7      28.895 101.963  16.192  1.00  0.00    -0.265 OA
ATOM    180  C5   DG A   7      27.561 100.979  17.925  1.00  0.00     0.173 A 
ATOM    181  N7   DG A   7      26.240 101.057  17.502  1.00  0.00    -0.234 NA
ATOM    182  C8   DG A   7      25.560 100.514  18.474  1.00  0.00     0.214 A 
ATOM    183  C2'  DG A   7      26.358 100.163  22.015  1.00  0.00     0.199 C 
ATOM    184  O2'  DG A   7      26.687  99.199  22.998  1.00  0.00    -0.388 OA
ATOM    185 'HO2  DG A   7      26.263  99.481  23.810  1.00  0.00     0.210 HD
ATOM    186  C3'  DG A   7      25.093 100.926  22.399  1.00  0.00     0.198 C 
ATOM    187  O3'  DG A   7      25.037 101.207  23.796  1.00  0.00    -0.279 OA
ATOM    188  P    DT A   8      25.264 102.711  24.321  1.00  0.00     0.408 P 
ATOM    189  OP1  DT A   8      25.343 102.658  25.803  1.00  0.00    -0.624 OA
ATOM    190  OP2  DT A   8      24.256 103.588  23.671  1.00  0.00    -0.624 OA
ATOM    191  O5'  DT A   8      26.701 103.105  23.755  1.00  0.00    -0.287 OA
ATOM    192  C5'  DT A   8      27.891 102.547  24.310  1.00  0.00     0.216 C 
ATOM    193  C4'  DT A   8      29.107 103.194  23.690  1.00  0.00     0.180 C 
ATOM    194  O4'  DT A   8      29.306 102.637  22.361  1.00  0.00    -0.353 OA
ATOM    195  C1'  DT A   8      29.657 103.668  21.456  1.00  0.00     0.264 C 
ATOM    196  N1   DT A   8      28.572 103.809  20.474  1.00  0.00    -0.280 N 
ATOM    197  C6   DT A   8      27.254 103.669  20.847  1.00  0.00     0.104 A 
ATOM    198  C2   DT A   8      28.916 104.088  19.164  1.00  0.00     0.331 A 
ATOM    199  O2   DT A   8      30.070 104.218  18.795  1.00  0.00    -0.246 OA
ATOM    200  N3   DT A   8      27.859 104.211  18.301  1.00  0.00    -0.275 N 
ATOM    201  H3   DT A   8      28.087 104.397  17.337  1.00  0.00     0.173 HD
ATOM    202  C4   DT A   8      26.521 104.090  18.605  1.00  0.00     0.250 A 
ATOM    203  O4   DT A   8      25.683 104.255  17.721  1.00  0.00    -0.268 OA
ATOM    204  C5   DT A   8      26.248 103.799  19.977  1.00  0.00     0.092 A 
ATOM    205  C2'  DT A   8      29.911 104.933  22.275  1.00  0.00     0.199 C 
ATOM    206  O2'  DT A   8      31.273 104.960  22.659  1.00  0.00    -0.388 OA
ATOM    207 'HO2  DT A   8      31.322 105.410  23.503  1.00  0.00     0.210 HD
ATOM    208  C3'  DT A   8      29.001 104.699  23.475  1.00  0.00     0.198 C 
ATOM    209  O3'  DT A   8      29.428 105.412  24.634  1.00  0.00    -0.279 OA
ATOM    210  P    DA A   9      28.901 106.909  24.895  1.00  0.00     0.408 P 
ATOM    211  OP1  DA A   9      28.457 106.977  26.310  1.00  0.00    -0.624 OA
ATOM    212  OP2  DA A   9      27.958 107.287  23.811  1.00  0.00    -0.624 OA
ATOM    213  O5'  DA A   9      30.210 107.805  24.744  1.00  0.00    -0.287 OA
ATOM    214  C5'  DA A   9      31.335 107.615  25.602  1.00  0.00     0.216 C 
ATOM    215  C4'  DA A   9      32.537 108.354  25.057  1.00  0.00     0.180 C 
ATOM    216  O4'  DA A   9      32.969 107.705  23.829  1.00  0.00    -0.353 OA
ATOM    217  C1'  DA A   9      33.281 108.684  22.853  1.00  0.00     0.262 C 
ATOM    218  N9   DA A   9      32.272 108.619  21.796  1.00  0.00    -0.294 N 
ATOM    219  C4   DA A   9      32.396 109.107  20.517  1.00  0.00     0.167 A 
ATOM    220  N3   DA A   9      33.459 109.730  19.980  1.00  0.00    -0.222 NA
ATOM    221  C2   DA A   9      33.217 110.066  18.714  1.00  0.00     0.237 A 
ATOM    222  N1   DA A   9      32.115 109.865  17.979  1.00  0.00    -0.222 NA
ATOM    223  C6   DA A   9      31.066 109.235  18.549  1.00  0.00     0.155 A 
ATOM    224  N6   DA A   9      29.970 109.034  17.818  1.00  0.00    -0.382 N 
ATOM    225  H61  DA A   9      29.175 108.564  18.225  1.00  0.00     0.157 HD
ATOM    226  H62  DA A   9      29.932 109.351  16.858  1.00  0.00     0.157 HD
ATOM    227  C5   DA A   9      31.196 108.827  19.889  1.00  0.00     0.149 A 
ATOM    228  N7   DA A   9      30.330 108.171  20.754  1.00  0.00    -0.236 NA
ATOM    229  C8   DA A   9      31.015 108.071  21.867  1.00  0.00     0.214 A 
ATOM    230  C2'  DA A   9      33.327 110.031  23.573  1.00  0.00     0.199 C 
ATOM    231  O2'  DA A   9      34.621 110.213  24.119  1.00  0.00    -0.388 OA
ATOM    232 'HO2  DA A   9      34.549 110.894  24.788  1.00  0.00     0.210 HD
ATOM    233  C3'  DA A   9      32.290 109.806  24.665  1.00  0.00     0.198 C 
ATOM    234  O3'  DA A   9      32.460 110.689  25.771  1.00  0.00    -0.279 OA
ATOM    235  P    DG A  10      31.657 112.083  25.810  1.00  0.00     0.408 P 
ATOM    236  OP1  DG A  10      31.908 112.702  27.138  1.00  0.00    -0.624 OA
ATOM    237  OP2  DG A  10      30.261 111.834  25.370  1.00  0.00    -0.624 OA
ATOM    238  O5'  DG A  10      32.379 112.976  24.705  1.00  0.00    -0.287 OA
ATOM    239  C5'  DG A  10      33.675 113.523  24.937  1.00  0.00     0.216 C 
ATOM    240  C4'  DG A  10      34.134 114.315  23.736  1.00  0.00     0.180 C 
ATOM    241  O4'  DG A  10      34.070 113.477  22.556  1.00  0.00    -0.353 OA
ATOM    242  C1'  DG A  10      33.843 114.288  21.418  1.00  0.00     0.262 C 
ATOM    243  N9   DG A  10      32.714 113.735  20.675  1.00  0.00    -0.293 N 
ATOM    244  C4   DG A  10      32.427 113.958  19.351  1.00  0.00     0.187 A 
ATOM    245  N3   DG A  10      33.145 114.727  18.506  1.00  0.00    -0.044 NA
ATOM    246  C2   DG A  10      32.619 114.750  17.296  1.00  0.00     0.703 A 
ATOM    247  N2   DG A  10      33.208 115.467  16.337  1.00  0.00    -0.233 N 
ATOM    248  H21  DG A  10      34.050 115.982  16.554  1.00  0.00     0.174 HD
ATOM    249  H22  DG A  10      32.818 115.496  15.405  1.00  0.00     0.174 HD
ATOM    250  N1   DG A  10      31.482 114.073  16.938  1.00  0.00    -0.153 N 
ATOM    251  H1   DG A  10      31.167 114.160  15.983  1.00  0.00     0.187 HD
ATOM    252  C6   DG A  10      30.728 113.274  17.789  1.00  0.00     0.292 A 
ATOM    253  O6   DG A  10      29.716 112.705  17.362  1.00  0.00    -0.265 OA
ATOM    254  C5   DG A  10      31.279 113.239  19.098  1.00  0.00     0.173 A 
ATOM    255  N7   DG A  10      30.850 112.576  20.240  1.00  0.00    -0.234 NA
ATOM    256  C8   DG A  10      31.732 112.899  21.148  1.00  0.00     0.214 A 
ATOM    257  C2'  DG A  10      33.615 115.726  21.895  1.00  0.00     0.199 C 
ATOM    258  O2'  DG A  10      34.823 116.448  21.744  1.00  0.00    -0.388 OA
ATOM    259 'HO2  DG A  10      34.580 117.364  21.600  1.00  0.00     0.210 HD
ATOM    260  C3'  DG A  10      33.278 115.516  23.368  1.00  0.00     0.198 C 
ATOM    261  O3'  DG A  10      33.603 116.649  24.171  1.00  0.00    -0.279 OA
ATOM    262  P    DC A  11      32.682 117.967  24.108  1.00  0.00     0.408 P 
ATOM    263  OP1  DC A  11      33.367 119.023  24.896  1.00  0.00    -0.624 OA
ATOM    264  OP2  DC A  11      31.288 117.585  24.448  1.00  0.00    -0.624 OA
ATOM    265  O5'  DC A  11      32.726 118.397  22.574  1.00  0.00    -0.287 OA
ATOM    266  C5'  DC A  11      31.627 119.076  21.969  1.00  0.00     0.216 C 
ATOM    267  C4'  DC A  11      31.919 119.339  20.511  1.00  0.00     0.180 C 
ATOM    268  O4'  DC A  11      32.139 118.068  19.838  1.00  0.00    -0.353 OA
ATOM    269  C1'  DC A  11      31.496 118.077  18.576  1.00  0.00     0.264 C 
ATOM    270  N1   DC A  11      30.390 117.105  18.610  1.00  0.00    -0.278 N 
ATOM    271  C6   DC A  11      30.101 116.410  19.753  1.00  0.00     0.102 A 
ATOM    272  C2   DC A  11      29.635 116.901  17.451  1.00  0.00     0.352 A 
ATOM    273  O2   DC A  11      29.920 117.539  16.426  1.00  0.00    -0.244 OA
ATOM    274  N3   DC A  11      28.614 116.015  17.474  1.00  0.00    -0.177 NA
ATOM    275  C4   DC A  11      28.340 115.344  18.592  1.00  0.00     0.128 A 
ATOM    276  N4   DC A  11      27.326 114.482  18.564  1.00  0.00    -0.384 N 
ATOM    277  H41  DC A  11      27.083 113.954  19.390  1.00  0.00     0.157 HD
ATOM    278  H42  DC A  11      26.801 114.358  17.710  1.00  0.00     0.157 HD
ATOM    279  C5   DC A  11      29.093 115.527  19.788  1.00  0.00     0.067 A 
ATOM    280  C2'  DC A  11      31.044 119.513  18.312  1.00  0.00     0.199 C 
ATOM    281  O2'  DC A  11      32.112 120.220  17.710  1.00  0.00    -0.388 OA
ATOM    282 'HO2  DC A  11      32.278 120.988  18.258  1.00  0.00     0.210 HD
ATOM    283  C3'  DC A  11      30.791 120.001  19.732  1.00  0.00     0.198 C 
ATOM    284  O3'  DC A  11      30.843 121.421  19.842  1.00  0.00    -0.279 OA
ATOM    285  P    DT A  12      29.546 122.301  19.476  1.00  0.00     0.408 P 
ATOM    286  OP1  DT A  12      29.824 123.697  19.896  1.00  0.00    -0.624 OA
ATOM    287  OP2  DT A  12      28.337 121.608  19.991  1.00  0.00    -0.624 OA
ATOM    288  O5'  DT A  12      29.491 122.262  17.884  1.00  0.00    -0.287 OA
ATOM    289  C5'  DT A  12      30.531 122.841  17.097  1.00  0.00     0.216 C 
ATOM    290  C4'  DT A  12      30.077 122.985  15.664  1.00  0.00     0.180 C 
ATOM    291  O4'  DT A  12      29.816 121.662  15.121  1.00  0.00    -0.353 OA
ATOM    292  C1'  DT A  12      28.640 121.689  14.332  1.00  0.00     0.264 C 
ATOM    293  N1   DT A  12      27.625 120.845  14.983  1.00  0.00    -0.280 N 
ATOM    294  C6   DT A  12      27.680 120.567  16.330  1.00  0.00     0.104 A 
ATOM    295  C2   DT A  12      26.609 120.340  14.192  1.00  0.00     0.331 A 
ATOM    296  O2   DT A  12      26.527 120.563  12.998  1.00  0.00    -0.246 OA
ATOM    297  N3   DT A  12      25.692 119.563  14.852  1.00  0.00    -0.275 N 
ATOM    298  H3   DT A  12      24.940 119.191  14.291  1.00  0.00     0.173 HD
ATOM    299  C4   DT A  12      25.686 119.245  16.191  1.00  0.00     0.250 A 
ATOM    300  O4   DT A  12      24.788 118.532  16.638  1.00  0.00    -0.268 OA
ATOM    301  C5   DT A  12      26.767 119.804  16.939  1.00  0.00     0.092 A 
ATOM    302  C2'  DT A  12      28.221 123.151  14.184  1.00  0.00     0.199 C 
ATOM    303  O2'  DT A  12      28.866 123.696  13.048  1.00  0.00    -0.388 OA
ATOM    304 'HO2  DT A  12      29.165 124.571  13.294  1.00  0.00     0.210 HD
ATOM    305  C3'  DT A  12      28.774 123.750  15.471  1.00  0.00     0.198 C 
ATOM    306  O3'  DT A  12      29.002 125.152  15.364  1.00  0.00    -0.279 OA
ATOM    307  P    DC A  13      27.896 126.185  15.909  1.00  0.00     0.408 P 
ATOM    308  OP1  DC A  13      28.423 127.557  15.693  1.00  0.00    -0.624 OA
ATOM    309  OP2  DC A  13      27.492 125.762  17.274  1.00  0.00    -0.624 OA
ATOM    310  O5'  DC A  13      26.653 125.969  14.935  1.00  0.00    -0.287 OA
ATOM    311  C5'  DC A  13      26.722 126.344  13.559  1.00  0.00     0.216 C 
ATOM    312  C4'  DC A  13      25.375 126.156  12.900  1.00  0.00     0.180 C 
ATOM    313  O4'  DC A  13      25.097 124.734  12.790  1.00  0.00    -0.353 OA
ATOM    314  C1'  DC A  13      23.731 124.488  13.077  1.00  0.00     0.264 C 
ATOM    315  N1   DC A  13      23.650 123.684  14.307  1.00  0.00    -0.278 N 
ATOM    316  C6   DC A  13      24.506 123.911  15.349  1.00  0.00     0.102 A 
ATOM    317  C2   DC A  13      22.682 122.680  14.396  1.00  0.00     0.352 A 
ATOM    318  O2   DC A  13      21.919 122.496  13.437  1.00  0.00    -0.244 OA
ATOM    319  N3   DC A  13      22.600 121.939  15.524  1.00  0.00    -0.177 NA
ATOM    320  C4   DC A  13      23.438 122.170  16.535  1.00  0.00     0.128 A 
ATOM    321  N4   DC A  13      23.318 121.415  17.626  1.00  0.00    -0.384 N 
ATOM    322  H41  DC A  13      23.932 121.557  18.415  1.00  0.00     0.157 HD
ATOM    323  H42  DC A  13      22.609 120.697  17.655  1.00  0.00     0.157 HD
ATOM    324  C5   DC A  13      24.435 123.185  16.473  1.00  0.00     0.067 A 
ATOM    325  C2'  DC A  13      23.039 125.846  13.187  1.00  0.00     0.199 C 
ATOM    326  O2'  DC A  13      22.597 126.236  11.900  1.00  0.00    -0.388 OA
ATOM    327 'HO2  DC A  13      21.796 126.748  12.019  1.00  0.00     0.210 HD
ATOM    328  C3'  DC A  13      24.188 126.722  13.669  1.00  0.00     0.198 C 
ATOM    329  O3'  DC A  13      23.985 128.102  13.381  1.00  0.00    -0.279 OA
ATOM    330  P    DA A  14      22.994 128.972  14.300  1.00  0.00     0.408 P 
ATOM    331  OP1  DA A  14      23.161 130.396  13.911  1.00  0.00    -0.624 OA
ATOM    332  OP2  DA A  14      23.191 128.572  15.716  1.00  0.00    -0.624 OA
ATOM    333  O5'  DA A  14      21.539 128.501  13.848  1.00  0.00    -0.287 OA
ATOM    334  C5'  DA A  14      20.958 128.970  12.633  1.00  0.00     0.216 C 
ATOM    335  C4'  DA A  14      19.513 128.538  12.546  1.00  0.00     0.180 C 
ATOM    336  O4'  DA A  14      19.458 127.084  12.531  1.00  0.00    -0.353 OA
ATOM    337  C1'  DA A  14      18.387 126.638  13.344  1.00  0.00     0.262 C 
ATOM    338  N9   DA A  14      18.946 125.930  14.496  1.00  0.00    -0.294 N 
ATOM    339  C4   DA A  14      18.430 124.805  15.089  1.00  0.00     0.167 A 
ATOM    340  N3   DA A  14      17.320 124.133  14.734  1.00  0.00    -0.222 NA
ATOM    341  C2   DA A  14      17.127 123.090  15.539  1.00  0.00     0.237 A 
ATOM    342  N1   DA A  14      17.862 122.674  16.577  1.00  0.00    -0.222 NA
ATOM    343  C6   DA A  14      18.969 123.370  16.906  1.00  0.00     0.155 A 
ATOM    344  N6   DA A  14      19.697 122.954  17.942  1.00  0.00    -0.382 N 
ATOM    345  H61  DA A  14      20.529 123.461  18.206  1.00  0.00     0.157 HD
ATOM    346  H62  DA A  14      19.412 122.126  18.443  1.00  0.00     0.157 HD
ATOM    347  C5   DA A  14      19.285 124.500  16.131  1.00  0.00     0.149 A 
ATOM    348  N7   DA A  14      20.326 125.416  16.196  1.00  0.00    -0.236 NA
ATOM    349  C8   DA A  14      20.078 126.242  15.208  1.00  0.00     0.214 A 
ATOM    350  C2'  DA A  14      17.563 127.868  13.723  1.00  0.00     0.199 C 
ATOM    351  O2'  DA A  14      16.603 128.102  12.710  1.00  0.00    -0.388 OA
ATOM    352 'HO2  DA A  14      16.681 129.025  12.464  1.00  0.00     0.210 HD
ATOM    353  C3'  DA A  14      18.637 128.948  13.724  1.00  0.00     0.198 C 
ATOM    354  O3'  DA A  14      18.093 130.253  13.548  1.00  0.00    -0.279 OA
ATOM    355  P    DG A  15      17.689 131.130  14.836  1.00  0.00     0.408 P 
ATOM    356  OP1  DG A  15      16.923 132.306  14.347  1.00  0.00    -0.624 OA
ATOM    357  OP2  DG A  15      18.907 131.339  15.657  1.00  0.00    -0.624 OA
ATOM    358  O5'  DG A  15      16.692 130.189  15.649  1.00  0.00    -0.287 OA
ATOM    359  C5'  DG A  15      15.383 129.906  15.158  1.00  0.00     0.216 C 
ATOM    360  C4'  DG A  15      14.709 128.877  16.036  1.00  0.00     0.180 C 
ATOM    361  O4'  DG A  15      15.492 127.653  16.009  1.00  0.00    -0.353 OA
ATOM    362  C1'  DG A  15      15.541 127.086  17.305  1.00  0.00     0.262 C 
ATOM    363  N9   DG A  15      16.928 127.100  17.761  1.00  0.00    -0.293 N 
ATOM    364  C4   DG A  15      17.517 126.202  18.621  1.00  0.00     0.187 A 
ATOM    365  N3   DG A  15      16.912 125.141  19.196  1.00  0.00    -0.044 NA
ATOM    366  C2   DG A  15      17.738 124.467  19.975  1.00  0.00     0.703 A 
ATOM    367  N2   DG A  15      17.301 123.382  20.621  1.00  0.00    -0.233 N 
ATOM    368  H21  DG A  15      16.343 123.089  20.507  1.00  0.00     0.174 HD
ATOM    369  H22  DG A  15      17.923 122.861  21.223  1.00  0.00     0.174 HD
ATOM    370  N1   DG A  15      19.051 124.804  20.178  1.00  0.00    -0.153 N 
ATOM    371  H1   DG A  15      19.595 124.224  20.797  1.00  0.00     0.187 HD
ATOM    372  C6   DG A  15      19.697 125.889  19.596  1.00  0.00     0.292 A 
ATOM    373  O6   DG A  15      20.888 126.099  19.845  1.00  0.00    -0.265 OA
ATOM    374  C5   DG A  15      18.822 126.626  18.754  1.00  0.00     0.173 A 
ATOM    375  N7   DG A  15      19.052 127.765  17.993  1.00  0.00    -0.234 NA
ATOM    376  C8   DG A  15      17.903 128.007  17.424  1.00  0.00     0.214 A 
ATOM    377  C2'  DG A  15      14.594 127.887  18.199  1.00  0.00     0.199 C 
ATOM    378  O2'  DG A  15      13.308 127.299  18.143  1.00  0.00    -0.388 OA
ATOM    379 'HO2  DG A  15      12.721 127.966  17.784  1.00  0.00     0.210 HD
ATOM    380  C3'  DG A  15      14.610 129.247  17.510  1.00  0.00     0.198 C 
ATOM    381  O3'  DG A  15      13.431 130.003  17.777  1.00  0.00    -0.279 OA
ATOM    382  P    DT A  16      13.543 131.424  18.521  1.00  0.00     0.408 P 
ATOM    383  OP1  DT A  16      12.192 132.040  18.496  1.00  0.00    -0.624 OA
ATOM    384  OP2  DT A  16      14.698 132.167  17.956  1.00  0.00    -0.624 OA
ATOM    385  O5'  DT A  16      13.881 131.042  20.031  1.00  0.00    -0.287 OA
ATOM    386  C5'  DT A  16      13.084 130.099  20.747  1.00  0.00     0.216 C 
ATOM    387  C4'  DT A  16      13.490 130.073  22.202  1.00  0.00     0.180 C 
ATOM    388  O4'  DT A  16      12.314 129.793  23.006  1.00  0.00    -0.353 OA
ATOM    389  C1'  DT A  16      12.656 128.933  24.077  1.00  0.00     0.264 C 
ATOM    390  N1   DT A  16      11.877 127.694  23.939  1.00  0.00    -0.280 N 
ATOM    391  C6   DT A  16      11.533 127.199  22.700  1.00  0.00     0.104 A 
ATOM    392  C2   DT A  16      11.495 127.042  25.096  1.00  0.00     0.331 A 
ATOM    393  O2   DT A  16      11.782 127.445  26.208  1.00  0.00    -0.246 OA
ATOM    394  N3   DT A  16      10.764 125.898  24.903  1.00  0.00    -0.275 N 
ATOM    395  H3   DT A  16      10.481 125.400  25.733  1.00  0.00     0.173 HD
ATOM    396  C4   DT A  16      10.381 125.352  23.700  1.00  0.00     0.250 A 
ATOM    397  O4   DT A  16       9.696 124.330  23.691  1.00  0.00    -0.268 OA
ATOM    398  C5   DT A  16      10.817 126.080  22.550  1.00  0.00     0.092 A 
ATOM    399  C2'  DT A  16      14.171 128.721  24.046  1.00  0.00     0.199 C 
ATOM    400  O2'  DT A  16      14.779 129.688  24.883  1.00  0.00    -0.388 OA
ATOM    401 'HO2  DT A  16      15.272 130.276  24.310  1.00  0.00     0.210 HD
ATOM    402  C3'  DT A  16      14.491 128.989  22.578  1.00  0.00     0.198 C 
ATOM    403  O3'  DT A  16      15.830 129.438  22.394  1.00  0.00    -0.279 OA
ATOM    404  P    DC A  17      16.992 128.378  22.054  1.00  0.00     0.408 P 
ATOM    405  OP1  DC A  17      18.138 128.679  22.951  1.00  0.00    -0.624 OA
ATOM    406  OP2  DC A  17      17.196 128.373  20.585  1.00  0.00    -0.624 OA
ATOM    407  O5'  DC A  17      16.373 126.972  22.477  1.00  0.00    -0.287 OA
ATOM    408  C5'  DC A  17      17.084 126.075  23.333  1.00  0.00     0.216 C 
ATOM    409  C4'  DC A  17      16.115 125.274  24.178  1.00  0.00     0.180 C 
ATOM    410  O4'  DC A  17      14.753 125.662  23.834  1.00  0.00    -0.353 OA
ATOM    411  C1'  DC A  17      13.956 124.507  23.653  1.00  0.00     0.264 C 
ATOM    412  N1   DC A  17      13.657 124.369  22.218  1.00  0.00    -0.278 N 
ATOM    413  C6   DC A  17      14.350 125.089  21.285  1.00  0.00     0.102 A 
ATOM    414  C2   DC A  17      12.649 123.487  21.821  1.00  0.00     0.352 A 
ATOM    415  O2   DC A  17      12.037 122.844  22.686  1.00  0.00    -0.244 OA
ATOM    416  N3   DC A  17      12.366 123.355  20.505  1.00  0.00    -0.177 NA
ATOM    417  C4   DC A  17      13.048 124.062  19.604  1.00  0.00     0.128 A 
ATOM    418  N4   DC A  17      12.734 123.901  18.319  1.00  0.00    -0.384 N 
ATOM    419  H41  DC A  17      13.231 124.423  17.610  1.00  0.00     0.157 HD
ATOM    420  H42  DC A  17      11.998 123.260  18.060  1.00  0.00     0.157 HD
ATOM    421  C5   DC A  17      14.081 124.968  19.980  1.00  0.00     0.067 A 
ATOM    422  C2'  DC A  17      14.734 123.332  24.243  1.00  0.00     0.199 C 
ATOM    423  O2'  DC A  17      14.475 123.267  25.633  1.00  0.00    -0.388 OA
ATOM    424 'HO2  DC A  17      15.309 123.426  26.077  1.00  0.00     0.210 HD
ATOM    425  C3'  DC A  17      16.169 123.765  23.966  1.00  0.00     0.198 C 
ATOM    426  O3'  DC A  17      17.102 123.149  24.849  1.00  0.00    -0.279 OA
ATOM    427  P    DG A  18      18.414 122.431  24.257  1.00  0.00     0.408 P 
ATOM    428  OP1  DG A  18      19.362 122.238  25.382  1.00  0.00    -0.624 OA
ATOM    429  OP2  DG A  18      18.854 123.174  23.046  1.00  0.00    -0.624 OA
ATOM    430  O5'  DG A  18      17.896 120.997  23.797  1.00  0.00    -0.287 OA
ATOM    431  C5'  DG A  18      18.707 120.146  22.989  1.00  0.00     0.216 C 
ATOM    432  C4'  DG A  18      18.116 118.756  22.943  1.00  0.00     0.180 C 
ATOM    433  O4'  DG A  18      17.239 118.667  21.789  1.00  0.00    -0.353 OA
ATOM    434  C1'  DG A  18      17.816 117.829  20.807  1.00  0.00     0.262 C 
ATOM    435  N9   DG A  18      17.752 118.526  19.527  1.00  0.00    -0.293 N 
ATOM    436  C4   DG A  18      16.970 118.189  18.448  1.00  0.00     0.187 A 
ATOM    437  N3   DG A  18      16.121 117.143  18.381  1.00  0.00    -0.044 NA
ATOM    438  C2   DG A  18      15.509 117.079  17.212  1.00  0.00     0.703 A 
ATOM    439  N2   DG A  18      14.633 116.098  16.977  1.00  0.00    -0.233 N 
ATOM    440  H21  DG A  18      14.447 115.416  17.698  1.00  0.00     0.174 HD
ATOM    441  H22  DG A  18      14.174 116.028  16.081  1.00  0.00     0.174 HD
ATOM    442  N1   DG A  18      15.711 117.969  16.189  1.00  0.00    -0.153 N 
ATOM    443  H1   DG A  18      15.197 117.832  15.333  1.00  0.00     0.187 HD
ATOM    444  C6   DG A  18      16.577 119.055  16.235  1.00  0.00     0.292 A 
ATOM    445  O6   DG A  18      16.681 119.799  15.254  1.00  0.00    -0.265 OA
ATOM    446  C5   DG A  18      17.246 119.137  17.485  1.00  0.00     0.173 A 
ATOM    447  N7   DG A  18      18.183 120.051  17.948  1.00  0.00    -0.234 NA
ATOM    448  C8   DG A  18      18.454 119.649  19.159  1.00  0.00     0.214 A 
ATOM    449  C2'  DG A  18      19.238 117.492  21.255  1.00  0.00     0.199 C 
ATOM    450  O2'  DG A  18      19.527 116.155  20.889  1.00  0.00    -0.388 OA
ATOM    451 'HO2  DG A  18      19.174 115.605  21.589  1.00  0.00     0.210 HD
ATOM    452  C3'  DG A  18      19.122 117.626  22.770  1.00  0.00     0.198 C 
ATOM    453  O3'  DG A  18      18.666 116.425  23.387  1.00  0.00    -0.279 OA
ATOM    454  P    DA A  19      19.014 116.138  24.931  1.00  0.00     0.408 P 
ATOM    455  OP1  DA A  19      18.090 116.956  25.757  1.00  0.00    -0.624 OA
ATOM    456  OP2  DA A  19      20.481 116.284  25.108  1.00  0.00    -0.624 OA
ATOM    457  O5'  DA A  19      18.632 114.604  25.132  1.00  0.00    -0.287 OA
ATOM    458  C5'  DA A  19      19.591 113.663  25.610  1.00  0.00     0.216 C 
ATOM    459  C4'  DA A  19      18.900 112.402  26.079  1.00  0.00     0.180 C 
ATOM    460  O4'  DA A  19      18.165 112.699  27.301  1.00  0.00    -0.353 OA
ATOM    461  C1'  DA A  19      16.891 112.081  27.253  1.00  0.00     0.262 C 
ATOM    462  N9   DA A  19      15.877 113.127  27.130  1.00  0.00    -0.294 N 
ATOM    463  C4   DA A  19      14.549 113.022  27.466  1.00  0.00     0.167 A 
ATOM    464  N3   DA A  19      13.917 111.950  27.976  1.00  0.00    -0.222 NA
ATOM    465  C2   DA A  19      12.628 112.215  28.173  1.00  0.00     0.237 A 
ATOM    466  N1   DA A  19      11.949 113.346  27.938  1.00  0.00    -0.222 NA
ATOM    467  C6   DA A  19      12.613 114.403  27.426  1.00  0.00     0.155 A 
ATOM    468  N6   DA A  19      11.935 115.525  27.189  1.00  0.00    -0.382 N 
ATOM    469  H61  DA A  19      12.414 116.327  26.803  1.00  0.00     0.157 HD
ATOM    470  H62  DA A  19      10.948 115.569  27.397  1.00  0.00     0.157 HD
ATOM    471  C5   DA A  19      13.987 114.251  27.171  1.00  0.00     0.149 A 
ATOM    472  N7   DA A  19      14.943 115.118  26.661  1.00  0.00    -0.236 NA
ATOM    473  C8   DA A  19      16.043 114.406  26.658  1.00  0.00     0.214 A 
ATOM    474  C2'  DA A  19      16.914 111.106  26.078  1.00  0.00     0.199 C 
ATOM    475  O2'  DA A  19      17.468 109.879  26.515  1.00  0.00    -0.388 OA
ATOM    476 'HO2  DA A  19      18.181 109.668  25.912  1.00  0.00     0.210 HD
ATOM    477  C3'  DA A  19      17.857 111.830  25.126  1.00  0.00     0.198 C 
ATOM    478  O3'  DA A  19      18.440 110.952  24.167  1.00  0.00    -0.279 OA
ATOM    479  P    DT A  20      17.648 110.618  22.806  1.00  0.00     0.408 P 
ATOM    480  OP1  DT A  20      18.358 109.490  22.151  1.00  0.00    -0.624 OA
ATOM    481  OP2  DT A  20      17.441 111.886  22.059  1.00  0.00    -0.624 OA
ATOM    482  O5'  DT A  20      16.228 110.093  23.303  1.00  0.00    -0.287 OA
ATOM    483  C5'  DT A  20      16.080 108.784  23.853  1.00  0.00     0.216 C 
ATOM    484  C4'  DT A  20      14.664 108.580  24.343  1.00  0.00     0.180 C 
ATOM    485  O4'  DT A  20      14.337 109.621  25.305  1.00  0.00    -0.353 OA
ATOM    486  C1'  DT A  20      12.978 109.999  25.154  1.00  0.00     0.264 C 
ATOM    487  N1   DT A  20      12.927 111.420  24.779  1.00  0.00    -0.280 N 
ATOM    488  C6   DT A  20      13.988 112.032  24.147  1.00  0.00     0.104 A 
ATOM    489  C2   DT A  20      11.776 112.122  25.080  1.00  0.00     0.331 A 
ATOM    490  O2   DT A  20      10.818 111.619  25.638  1.00  0.00    -0.246 OA
ATOM    491  N3   DT A  20      11.786 113.440  24.703  1.00  0.00    -0.275 N 
ATOM    492  H3   DT A  20      10.954 113.970  24.911  1.00  0.00     0.173 HD
ATOM    493  C4   DT A  20      12.805 114.114  24.072  1.00  0.00     0.250 A 
ATOM    494  O4   DT A  20      12.661 115.305  23.797  1.00  0.00    -0.268 OA
ATOM    495  C5   DT A  20      13.962 113.321  23.797  1.00  0.00     0.092 A 
ATOM    496  C2'  DT A  20      12.356 109.072  24.110  1.00  0.00     0.199 C 
ATOM    497  O2'  DT A  20      11.820 107.940  24.771  1.00  0.00    -0.388 OA
ATOM    498 'HO2  DT A  20      12.263 107.175  24.402  1.00  0.00     0.210 HD
ATOM    499  C3'  DT A  20      13.579 108.700  23.283  1.00  0.00     0.198 C 
ATOM    500  O3'  DT A  20      13.401 107.482  22.566  1.00  0.00    -0.279 OA
ATOM    501  P    DC A  21      12.934 107.522  21.029  1.00  0.00     0.408 P 
ATOM    502  OP1  DC A  21      11.460 107.697  21.016  1.00  0.00    -0.624 OA
ATOM    503  OP2  DC A  21      13.539 106.355  20.335  1.00  0.00    -0.624 OA
ATOM    504  O5'  DC A  21      13.606 108.849  20.456  1.00  0.00    -0.287 OA
ATOM    505  C5'  DC A  21      13.772 109.043  19.052  1.00  0.00     0.216 C 
ATOM    506  C4'  DC A  21      14.100 110.489  18.756  1.00  0.00     0.180 C 
ATOM    507  O4'  DC A  21      12.894 111.283  18.946  1.00  0.00    -0.353 OA
ATOM    508  C1'  DC A  21      13.177 112.366  19.803  1.00  0.00     0.264 C 
ATOM    509  N1   DC A  21      11.949 112.716  20.538  1.00  0.00    -0.278 N 
ATOM    510  C6   DC A  21      11.317 113.905  20.304  1.00  0.00     0.102 A 
ATOM    511  C2   DC A  21      11.434 111.817  21.480  1.00  0.00     0.352 A 
ATOM    512  O2   DC A  21      12.026 110.748  21.679  1.00  0.00    -0.244 OA
ATOM    513  N3   DC A  21      10.304 112.138  22.149  1.00  0.00    -0.177 NA
ATOM    514  C4   DC A  21       9.694 113.299  21.911  1.00  0.00     0.128 A 
ATOM    515  N4   DC A  21       8.582 113.570  22.595  1.00  0.00    -0.384 N 
ATOM    516  H41  DC A  21       8.092 114.439  22.443  1.00  0.00     0.157 HD
ATOM    517  H42  DC A  21       8.234 112.896  23.261  1.00  0.00     0.157 HD
ATOM    518  C5   DC A  21      10.197 114.235  20.961  1.00  0.00     0.067 A 
ATOM    519  C2'  DC A  21      14.344 111.908  20.671  1.00  0.00     0.199 C 
ATOM    520  O2'  DC A  21      15.046 113.051  21.128  1.00  0.00    -0.388 OA
ATOM    521 'HO2  DC A  21      15.966 112.924  20.896  1.00  0.00     0.210 HD
ATOM    522  C3'  DC A  21      15.165 111.119  19.655  1.00  0.00     0.198 C 
ATOM    523  O3'  DC A  21      16.042 111.963  18.910  1.00  0.00    -0.279 OA
ATOM    524  P    DC A  22      17.305 111.329  18.140  1.00  0.00     0.408 P 
ATOM    525  OP1  DC A  22      17.086 109.866  18.020  1.00  0.00    -0.624 OA
ATOM    526  OP2  DC A  22      18.542 111.835  18.789  1.00  0.00    -0.624 OA
ATOM    527  O5'  DC A  22      17.223 111.963  16.679  1.00  0.00    -0.287 OA
ATOM    528  C5'  DC A  22      16.123 111.680  15.814  1.00  0.00     0.216 C 
ATOM    529  C4'  DC A  22      16.017 112.735  14.737  1.00  0.00     0.180 C 
ATOM    530  O4'  DC A  22      15.749 114.018  15.370  1.00  0.00    -0.353 OA
ATOM    531  C1'  DC A  22      16.583 115.013  14.809  1.00  0.00     0.264 C 
ATOM    532  N1   DC A  22      17.592 115.398  15.810  1.00  0.00    -0.278 N 
ATOM    533  C6   DC A  22      17.633 114.792  17.035  1.00  0.00     0.102 A 
ATOM    534  C2   DC A  22      18.513 116.400  15.489  1.00  0.00     0.352 A 
ATOM    535  O2   DC A  22      18.451 116.936  14.374  1.00  0.00    -0.244 OA
ATOM    536  N3   DC A  22      19.444 116.758  16.400  1.00  0.00    -0.177 NA
ATOM    537  C4   DC A  22      19.475 116.160  17.591  1.00  0.00     0.128 A 
ATOM    538  N4   DC A  22      20.412 116.549  18.454  1.00  0.00    -0.384 N 
ATOM    539  H41  DC A  22      20.462 116.117  19.367  1.00  0.00     0.157 HD
ATOM    540  H42  DC A  22      21.065 117.273  18.193  1.00  0.00     0.157 HD
ATOM    541  C5   DC A  22      18.548 115.139  17.948  1.00  0.00     0.067 A 
ATOM    542  C2'  DC A  22      17.173 114.426  13.529  1.00  0.00     0.199 C 
ATOM    543  O2'  DC A  22      16.249 114.620  12.475  1.00  0.00    -0.388 OA
ATOM    544 'HO2  DC A  22      16.093 113.759  12.084  1.00  0.00     0.210 HD
ATOM    545  C3'  DC A  22      17.277 112.954  13.906  1.00  0.00     0.198 C 
ATOM    546  O3'  DC A  22      17.304 112.105  12.762  1.00  0.00    -0.279 OA
ATOM    547  P    DC A  23      18.706 111.771  12.045  1.00  0.00     0.408 P 
ATOM    548  OP1  DC A  23      18.410 110.885  10.890  1.00  0.00    -0.624 OA
ATOM    549  OP2  DC A  23      19.667 111.324  13.084  1.00  0.00    -0.624 OA
ATOM    550  O5'  DC A  23      19.199 113.177  11.481  1.00  0.00    -0.287 OA
ATOM    551  C5'  DC A  23      18.421 113.901  10.528  1.00  0.00     0.216 C 
ATOM    552  C4'  DC A  23      19.230 115.039   9.946  1.00  0.00     0.180 C 
ATOM    553  O4'  DC A  23      19.211 116.161  10.870  1.00  0.00    -0.353 OA
ATOM    554  C1'  DC A  23      20.460 116.833  10.829  1.00  0.00     0.264 C 
ATOM    555  N1   DC A  23      21.066 116.775  12.170  1.00  0.00    -0.278 N 
ATOM    556  C6   DC A  23      20.839 115.709  12.996  1.00  0.00     0.102 A 
ATOM    557  C2   DC A  23      21.885 117.827  12.588  1.00  0.00     0.352 A 
ATOM    558  O2   DC A  23      22.070 118.784  11.822  1.00  0.00    -0.244 OA
ATOM    559  N3   DC A  23      22.455 117.776  13.814  1.00  0.00    -0.177 NA
ATOM    560  C4   DC A  23      22.230 116.730  14.609  1.00  0.00     0.128 A 
ATOM    561  N4   DC A  23      22.818 116.720  15.805  1.00  0.00    -0.384 N 
ATOM    562  H41  DC A  23      22.671 115.944  16.431  1.00  0.00     0.157 HD
ATOM    563  H42  DC A  23      23.411 117.491  16.077  1.00  0.00     0.157 HD
ATOM    564  C5   DC A  23      21.395 115.645  14.213  1.00  0.00     0.067 A 
ATOM    565  C2'  DC A  23      21.308 116.161   9.750  1.00  0.00     0.199 C 
ATOM    566  O2'  DC A  23      21.083 116.824   8.519  1.00  0.00    -0.388 OA
ATOM    567 'HO2  DC A  23      20.713 116.172   7.923  1.00  0.00     0.210 HD
ATOM    568  C3'  DC A  23      20.712 114.759   9.738  1.00  0.00     0.198 C 
ATOM    569  O3'  DC A  23      20.953 114.069   8.514  1.00  0.00    -0.279 OA
ATOM    570  P    DG A  24      22.214 113.076   8.394  1.00  0.00     0.408 P 
ATOM    571  OP1  DG A  24      22.218 112.535   7.011  1.00  0.00    -0.624 OA
ATOM    572  OP2  DG A  24      22.188 112.142   9.547  1.00  0.00    -0.624 OA
ATOM    573  O5'  DG A  24      23.477 114.036   8.551  1.00  0.00    -0.287 OA
ATOM    574  C5'  DG A  24      23.750 115.051   7.587  1.00  0.00     0.216 C 
ATOM    575  C4'  DG A  24      24.750 116.042   8.139  1.00  0.00     0.180 C 
ATOM    576  O4'  DG A  24      24.322 116.477   9.452  1.00  0.00    -0.353 OA
ATOM    577  C1'  DG A  24      25.456 116.870  10.203  1.00  0.00     0.262 C 
ATOM    578  N9   DG A  24      25.385 116.235  11.516  1.00  0.00    -0.293 N 
ATOM    579  C4   DG A  24      26.266 116.421  12.553  1.00  0.00     0.187 A 
ATOM    580  N3   DG A  24      27.353 117.221  12.536  1.00  0.00    -0.044 NA
ATOM    581  C2   DG A  24      28.005 117.192  13.683  1.00  0.00     0.703 A 
ATOM    582  N2   DG A  24      29.109 117.930  13.834  1.00  0.00    -0.233 N 
ATOM    583  H21  DG A  24      29.426 118.500  13.062  1.00  0.00     0.174 HD
ATOM    584  H22  DG A  24      29.623 117.923  14.704  1.00  0.00     0.174 HD
ATOM    585  N1   DG A  24      27.624 116.439  14.763  1.00  0.00    -0.153 N 
ATOM    586  H1   DG A  24      28.193 116.492  15.594  1.00  0.00     0.187 HD
ATOM    587  C6   DG A  24      26.512 115.606  14.805  1.00  0.00     0.292 A 
ATOM    588  O6   DG A  24      26.262 114.967  15.833  1.00  0.00    -0.265 OA
ATOM    589  C5   DG A  24      25.799 115.626  13.578  1.00  0.00     0.173 A 
ATOM    590  N7   DG A  24      24.646 114.953  13.193  1.00  0.00    -0.234 NA
ATOM    591  C8   DG A  24      24.441 115.345  11.965  1.00  0.00     0.214 A 
ATOM    592  C2'  DG A  24      26.710 116.487   9.411  1.00  0.00     0.199 C 
ATOM    593  O2'  DG A  24      27.213 117.648   8.778  1.00  0.00    -0.388 OA
ATOM    594 'HO2  DG A  24      27.268 117.448   7.844  1.00  0.00     0.210 HD
ATOM    595  C3'  DG A  24      26.149 115.503   8.386  1.00  0.00     0.198 C 
ATOM    596  O3'  DG A  24      26.920 115.472   7.186  1.00  0.00    -0.279 OA
ATOM    597  P    DC A  25      28.138 114.429   7.043  1.00  0.00     0.408 P 
ATOM    598  OP1  DC A  25      28.793 114.687   5.736  1.00  0.00    -0.624 OA
ATOM    599  OP2  DC A  25      27.624 113.070   7.352  1.00  0.00    -0.624 OA
ATOM    600  O5'  DC A  25      29.150 114.855   8.198  1.00  0.00    -0.287 OA
ATOM    601  C5'  DC A  25      29.811 116.119   8.163  1.00  0.00     0.216 C 
ATOM    602  C4'  DC A  25      31.011 116.110   9.083  1.00  0.00     0.180 C 
ATOM    603  O4'  DC A  25      30.578 116.437  10.427  1.00  0.00    -0.353 OA
ATOM    604  C1'  DC A  25      31.392 115.759  11.367  1.00  0.00     0.264 C 
ATOM    605  N1   DC A  25      30.520 114.969  12.252  1.00  0.00    -0.278 N 
ATOM    606  C6   DC A  25      29.360 114.417  11.783  1.00  0.00     0.102 A 
ATOM    607  C2   DC A  25      30.899 114.789  13.585  1.00  0.00     0.352 A 
ATOM    608  O2   DC A  25      31.953 115.302  13.984  1.00  0.00    -0.244 OA
ATOM    609  N3   DC A  25      30.108 114.061  14.404  1.00  0.00    -0.177 NA
ATOM    610  C4   DC A  25      28.980 113.525  13.938  1.00  0.00     0.128 A 
ATOM    611  N4   DC A  25      28.236 112.814  14.783  1.00  0.00    -0.384 N 
ATOM    612  H41  DC A  25      27.374 112.390  14.470  1.00  0.00     0.157 HD
ATOM    613  H42  DC A  25      28.538 112.699  15.740  1.00  0.00     0.157 HD
ATOM    614  C5   DC A  25      28.568 113.693  12.584  1.00  0.00     0.067 A 
ATOM    615  C2'  DC A  25      32.405 114.913  10.591  1.00  0.00     0.199 C 
ATOM    616  O2'  DC A  25      33.610 115.646  10.477  1.00  0.00    -0.388 OA
ATOM    617 'HO2  DC A  25      34.070 115.296   9.714  1.00  0.00     0.210 HD
ATOM    618  C3'  DC A  25      31.717 114.771   9.238  1.00  0.00     0.198 C 
ATOM    619  O3'  DC A  25      32.646 114.543   8.180  1.00  0.00    -0.279 OA
ATOM    620  P    DT A  26      32.702 113.108   7.454  1.00  0.00     0.408 P 
ATOM    621  OP1  DT A  26      33.267 113.334   6.099  1.00  0.00    -0.624 OA
ATOM    622  OP2  DT A  26      31.382 112.440   7.595  1.00  0.00    -0.624 OA
ATOM    623  O5'  DT A  26      33.779 112.289   8.298  1.00  0.00    -0.287 OA
ATOM    624  C5'  DT A  26      33.408 111.568   9.472  1.00  0.00     0.216 C 
ATOM    625  C4'  DT A  26      34.413 111.817  10.572  1.00  0.00     0.180 C 
ATOM    626  O4'  DT A  26      33.784 112.629  11.602  1.00  0.00    -0.353 OA
ATOM    627  C1'  DT A  26      34.139 112.141  12.883  1.00  0.00     0.264 C 
ATOM    628  N1   DT A  26      32.932 111.595  13.522  1.00  0.00    -0.280 N 
ATOM    629  C6   DT A  26      31.777 111.388  12.803  1.00  0.00     0.104 A 
ATOM    630  C2   DT A  26      32.994 111.296  14.870  1.00  0.00     0.331 A 
ATOM    631  O2   DT A  26      33.994 111.466  15.542  1.00  0.00    -0.246 OA
ATOM    632  N3   DT A  26      31.838 110.788  15.405  1.00  0.00    -0.275 N 
ATOM    633  H3   DT A  26      31.858 110.563  16.390  1.00  0.00     0.173 HD
ATOM    634  C4   DT A  26      30.653 110.555  14.746  1.00  0.00     0.250 A 
ATOM    635  O4   DT A  26      29.695 110.098  15.369  1.00  0.00    -0.268 OA
ATOM    636  C5   DT A  26      30.669 110.890  13.358  1.00  0.00     0.092 A 
ATOM    637  C2'  DT A  26      35.254 111.114  12.683  1.00  0.00     0.199 C 
ATOM    638  O2'  DT A  26      36.499 111.787  12.671  1.00  0.00    -0.388 OA
ATOM    639 'HO2  DT A  26      36.911 111.590  11.829  1.00  0.00     0.210 HD
ATOM    640  C3'  DT A  26      34.909 110.573  11.301  1.00  0.00     0.198 C 
ATOM    641  O3'  DT A  26      36.039 110.002  10.645  1.00  0.00    -0.279 OA
ATOM    642  P    DT A  27      36.001 108.465  10.170  1.00  0.00     0.408 P 
ATOM    643  OP1  DT A  27      36.964 108.323   9.050  1.00  0.00    -0.624 OA
ATOM    644  OP2  DT A  27      34.584 108.061   9.975  1.00  0.00    -0.624 OA
ATOM    645  O5'  DT A  27      36.576 107.663  11.421  1.00  0.00    -0.287 OA
ATOM    646  C5'  DT A  27      37.900 107.899  11.900  1.00  0.00     0.216 C 
ATOM    647  C4'  DT A  27      38.081 107.267  13.260  1.00  0.00     0.180 C 
ATOM    648  O4'  DT A  27      37.377 108.068  14.249  1.00  0.00    -0.353 OA
ATOM    649  C1'  DT A  27      36.736 107.218  15.185  1.00  0.00     0.264 C 
ATOM    650  N1   DT A  27      35.280 107.378  15.038  1.00  0.00    -0.280 N 
ATOM    651  C6   DT A  27      34.718 107.732  13.831  1.00  0.00     0.104 A 
ATOM    652  C2   DT A  27      34.493 107.153  16.152  1.00  0.00     0.331 A 
ATOM    653  O2   DT A  27      34.951 106.846  17.238  1.00  0.00    -0.246 OA
ATOM    654  N3   DT A  27      33.145 107.304  15.949  1.00  0.00    -0.275 N 
ATOM    655  H3   DT A  27      32.552 107.142  16.749  1.00  0.00     0.173 HD
ATOM    656  C4   DT A  27      32.517 107.647  14.774  1.00  0.00     0.250 A 
ATOM    657  O4   DT A  27      31.290 107.721  14.744  1.00  0.00    -0.268 OA
ATOM    658  C5   DT A  27      33.399 107.869  13.670  1.00  0.00     0.092 A 
ATOM    659  C2'  DT A  27      37.226 105.798  14.912  1.00  0.00     0.199 C 
ATOM    660  O2'  DT A  27      38.420 105.581  15.642  1.00  0.00    -0.388 OA
ATOM    661 'HO2  DT A  27      39.063 105.236  15.023  1.00  0.00     0.210 HD
ATOM    662  C3'  DT A  27      37.497 105.870  13.416  1.00  0.00     0.198 C 
ATOM    663  O3'  DT A  27      38.404 104.863  12.977  1.00  0.00    -0.279 OA
ATOM    664  P    DC A  28      37.840 103.430  12.514  1.00  0.00     0.408 P 
ATOM    665  OP1  DC A  28      39.000 102.615  12.073  1.00  0.00    -0.624 OA
ATOM    666  OP2  DC A  28      36.704 103.654  11.582  1.00  0.00    -0.624 OA
ATOM    667  O5'  DC A  28      37.263 102.789  13.853  1.00  0.00    -0.287 OA
ATOM    668  C5'  DC A  28      38.119 102.511  14.959  1.00  0.00     0.216 C 
ATOM    669  C4'  DC A  28      37.308 102.023  16.139  1.00  0.00     0.180 C 
ATOM    670  O4'  DC A  28      36.259 102.979  16.439  1.00  0.00    -0.353 OA
ATOM    671  C1'  DC A  28      35.145 102.295  16.991  1.00  0.00     0.264 C 
ATOM    672  N1   DC A  28      33.951 102.608  16.187  1.00  0.00    -0.278 N 
ATOM    673  C6   DC A  28      34.057 103.263  14.991  1.00  0.00     0.102 A 
ATOM    674  C2   DC A  28      32.699 102.216  16.669  1.00  0.00     0.352 A 
ATOM    675  O2   DC A  28      32.629 101.624  17.756  1.00  0.00    -0.244 OA
ATOM    676  N3   DC A  28      31.595 102.489  15.940  1.00  0.00    -0.177 NA
ATOM    677  C4   DC A  28      31.707 103.126  14.775  1.00  0.00     0.128 A 
ATOM    678  N4   DC A  28      30.589 103.370  14.091  1.00  0.00    -0.384 N 
ATOM    679  H41  DC A  28      30.630 103.850  13.204  1.00  0.00     0.157 HD
ATOM    680  H42  DC A  28      29.700 103.073  14.469  1.00  0.00     0.157 HD
ATOM    681  C5   DC A  28      32.971 103.541  14.258  1.00  0.00     0.067 A 
ATOM    682  C2'  DC A  28      35.481 100.803  17.013  1.00  0.00     0.199 C 
ATOM    683  O2'  DC A  28      36.013 100.477  18.283  1.00  0.00    -0.388 OA
ATOM    684 'HO2  DC A  28      36.819  99.983  18.128  1.00  0.00     0.210 HD
ATOM    685  C3'  DC A  28      36.548 100.724  15.928  1.00  0.00     0.198 C 
ATOM    686  O3'  DC A  28      37.390  99.582  16.070  1.00  0.00    -0.279 OA
ATOM    687  P    DC A  29      36.960  98.182  15.403  1.00  0.00     0.408 P 
ATOM    688  OP1  DC A  29      38.170  97.323  15.363  1.00  0.00    -0.624 OA
ATOM    689  OP2  DC A  29      36.217  98.461  14.147  1.00  0.00    -0.624 OA
ATOM    690  O5'  DC A  29      35.937  97.552  16.451  1.00  0.00    -0.287 OA
ATOM    691  C5'  DC A  29      36.359  97.210  17.770  1.00  0.00     0.216 C 
ATOM    692  C4'  DC A  29      35.194  96.674  18.569  1.00  0.00     0.180 C 
ATOM    693  O4'  DC A  29      34.219  97.736  18.768  1.00  0.00    -0.353 OA
ATOM    694  C1'  DC A  29      32.909  97.195  18.712  1.00  0.00     0.264 C 
ATOM    695  N1   DC A  29      32.208  97.785  17.560  1.00  0.00    -0.278 N 
ATOM    696  C6   DC A  29      32.904  98.321  16.513  1.00  0.00     0.102 A 
ATOM    697  C2   DC A  29      30.812  97.782  17.549  1.00  0.00     0.352 A 
ATOM    698  O2   DC A  29      30.205  97.294  18.512  1.00  0.00    -0.244 OA
ATOM    699  N3   DC A  29      30.157  98.310  16.491  1.00  0.00    -0.177 NA
ATOM    700  C4   DC A  29      30.845  98.830  15.474  1.00  0.00     0.128 A 
ATOM    701  N4   DC A  29      30.156  99.340  14.454  1.00  0.00    -0.384 N 
ATOM    702  H41  DC A  29      30.635  99.745  13.664  1.00  0.00     0.157 HD
ATOM    703  H42  DC A  29      29.145  99.319  14.478  1.00  0.00     0.157 HD
ATOM    704  C5   DC A  29      32.270  98.849  15.458  1.00  0.00     0.067 A 
ATOM    705  C2'  DC A  29      33.050  95.678  18.619  1.00  0.00     0.199 C 
ATOM    706  O2'  DC A  29      33.113  95.144  19.929  1.00  0.00    -0.388 OA
ATOM    707 'HO2  DC A  29      33.790  94.467  19.920  1.00  0.00     0.210 HD
ATOM    708  C3'  DC A  29      34.392  95.561  17.910  1.00  0.00     0.198 C 
ATOM    709  O3'  DC A  29      34.995  94.283  18.092  1.00  0.00    -0.279 OA
ATOM    710  P    DC A  30      34.660  93.090  17.064  1.00  0.00     0.408 P 
ATOM    711  OP1  DC A  30      35.429  91.898  17.504  1.00  0.00    -0.624 OA
ATOM    712  OP2  DC A  30      34.828  93.603  15.680  1.00  0.00    -0.624 OA
ATOM    713  O5'  DC A  30      33.111  92.801  17.299  1.00  0.00    -0.287 OA
ATOM    714  C5'  DC A  30      32.651  92.207  18.512  1.00  0.00     0.216 C 
ATOM    715  C4'  DC A  30      31.157  91.989  18.454  1.00  0.00     0.180 C 
ATOM    716  O4'  DC A  30      30.483  93.275  18.382  1.00  0.00    -0.353 OA
ATOM    717  C1'  DC A  30      29.307  93.151  17.599  1.00  0.00     0.264 C 
ATOM    718  N1   DC A  30      29.411  94.062  16.446  1.00  0.00    -0.278 N 
ATOM    719  C6   DC A  30      30.629  94.498  16.004  1.00  0.00     0.102 A 
ATOM    720  C2   DC A  30      28.241  94.470  15.804  1.00  0.00     0.352 A 
ATOM    721  O2   DC A  30      27.149  94.064  16.226  1.00  0.00    -0.244 OA
ATOM    722  N3   DC A  30      28.324  95.297  14.739  1.00  0.00    -0.177 NA
ATOM    723  C4   DC A  30      29.516  95.718  14.314  1.00  0.00     0.128 A 
ATOM    724  N4   DC A  30      29.546  96.536  13.263  1.00  0.00    -0.384 N 
ATOM    725  H41  DC A  30      30.425  96.882  12.907  1.00  0.00     0.157 HD
ATOM    726  H42  DC A  30      28.677  96.811  12.826  1.00  0.00     0.157 HD
ATOM    727  C5   DC A  30      30.728  95.320  14.950  1.00  0.00     0.067 A 
ATOM    728  C2'  DC A  30      29.181  91.682  17.194  1.00  0.00     0.199 C 
ATOM    729  O2'  DC A  30      28.416  91.006  18.175  1.00  0.00    -0.388 OA
ATOM    730 'HO2  DC A  30      28.235  90.129  17.833  1.00  0.00     0.210 HD
ATOM    731  C3'  DC A  30      30.641  91.248  17.229  1.00  0.00     0.198 C 
ATOM    732  O3'  DC A  30      30.790  89.837  17.348  1.00  0.00    -0.279 OA
ATOM    733  P    DC A  31      30.873  88.929  16.023  1.00  0.00     0.408 P 
ATOM    734  OP1  DC A  31      31.148  87.534  16.453  1.00  0.00    -0.624 OA
ATOM    735  OP2  DC A  31      31.787  89.592  15.056  1.00  0.00    -0.624 OA
ATOM    736  O5'  DC A  31      29.397  88.985  15.424  1.00  0.00    -0.287 OA
ATOM    737  C5'  DC A  31      28.348  88.199  15.987  1.00  0.00     0.216 C 
ATOM    738  C4'  DC A  31      27.015  88.601  15.396  1.00  0.00     0.180 C 
ATOM    739  O4'  DC A  31      26.895  90.048  15.402  1.00  0.00    -0.353 OA
ATOM    740  C1'  DC A  31      26.104  90.460  14.297  1.00  0.00     0.264 C 
ATOM    741  N1   DC A  31      26.885  91.409  13.485  1.00  0.00    -0.278 N 
ATOM    742  C6   DC A  31      28.238  91.522  13.644  1.00  0.00     0.102 A 
ATOM    743  C2   DC A  31      26.218  92.196  12.543  1.00  0.00     0.352 A 
ATOM    744  O2   DC A  31      24.991  92.074  12.417  1.00  0.00    -0.244 OA
ATOM    745  N3   DC A  31      26.923  93.068  11.791  1.00  0.00    -0.177 NA
ATOM    746  C4   DC A  31      28.241  93.174  11.954  1.00  0.00     0.128 A 
ATOM    747  N4   DC A  31      28.893  94.051  11.190  1.00  0.00    -0.384 N 
ATOM    748  H41  DC A  31      29.892  94.164  11.280  1.00  0.00     0.157 HD
ATOM    749  H42  DC A  31      28.375  94.606  10.521  1.00  0.00     0.157 HD
ATOM    750  C5   DC A  31      28.950  92.387  12.908  1.00  0.00     0.067 A 
ATOM    751  C2'  DC A  31      25.694  89.202  13.530  1.00  0.00     0.199 C 
ATOM    752  O2'  DC A  31      24.435  88.768  14.008  1.00  0.00    -0.388 OA
ATOM    753 'HO2  DC A  31      24.470  87.812  14.054  1.00  0.00     0.210 HD
ATOM    754  C3'  DC A  31      26.800  88.236  13.935  1.00  0.00     0.198 C 
ATOM    755  O3'  DC A  31      26.423  86.872  13.773  1.00  0.00    -0.279 OA
ATOM    756  P    DC A  32      26.723  86.118  12.384  1.00  0.00     0.408 P 
ATOM    757  OP1  DC A  32      26.404  84.682  12.580  1.00  0.00    -0.624 OA
ATOM    758  OP2  DC A  32      28.077  86.512  11.918  1.00  0.00    -0.624 OA
ATOM    759  O5'  DC A  32      25.654  86.732  11.374  1.00  0.00    -0.287 OA
ATOM    760  C5'  DC A  32      24.274  86.382  11.464  1.00  0.00     0.216 C 
ATOM    761  C4'  DC A  32      23.472  87.146  10.435  1.00  0.00     0.180 C 
ATOM    762  O4'  DC A  32      23.654  88.572  10.645  1.00  0.00    -0.353 OA
ATOM    763  C1'  DC A  32      23.592  89.244   9.397  1.00  0.00     0.264 C 
ATOM    764  N1   DC A  32      24.849  89.986   9.201  1.00  0.00    -0.278 N 
ATOM    765  C6   DC A  32      25.968  89.677   9.922  1.00  0.00     0.102 A 
ATOM    766  C2   DC A  32      24.882  91.015   8.256  1.00  0.00     0.352 A 
ATOM    767  O2   DC A  32      23.855  91.273   7.613  1.00  0.00    -0.244 OA
ATOM    768  N3   DC A  32      26.029  91.702   8.067  1.00  0.00    -0.177 NA
ATOM    769  C4   DC A  32      27.113  91.398   8.780  1.00  0.00     0.128 A 
ATOM    770  N4   DC A  32      28.219  92.108   8.560  1.00  0.00    -0.384 N 
ATOM    771  H41  DC A  32      29.064  91.913   9.078  1.00  0.00     0.157 HD
ATOM    772  H42  DC A  32      28.204  92.849   7.873  1.00  0.00     0.157 HD
ATOM    773  C5   DC A  32      27.111  90.353   9.749  1.00  0.00     0.067 A 
ATOM    774  C2'  DC A  32      23.333  88.194   8.317  1.00  0.00     0.199 C 
ATOM    775  O2'  DC A  32      21.937  88.090   8.109  1.00  0.00    -0.388 OA
ATOM    776 'HO2  DC A  32      21.715  87.161   8.182  1.00  0.00     0.210 HD
ATOM    777  C3'  DC A  32      23.886  86.941   8.986  1.00  0.00     0.198 C 
ATOM    778  O3'  DC A  32      23.338  85.746   8.436  1.00  0.00    -0.279 OA
ATOM    779  P    DC A  33      24.010  85.083   7.134  1.00  0.00     0.408 P 
ATOM    780  OP1  DC A  33      23.317  83.793   6.885  1.00  0.00    -0.624 OA
ATOM    781  OP2  DC A  33      25.486  85.101   7.304  1.00  0.00    -0.624 OA
ATOM    782  O5'  DC A  33      23.638  86.086   5.951  1.00  0.00    -0.287 OA
ATOM    783  C5'  DC A  33      22.288  86.235   5.511  1.00  0.00     0.216 C 
ATOM    784  C4'  DC A  33      22.237  87.079   4.258  1.00  0.00     0.180 C 
ATOM    785  O4'  DC A  33      22.512  88.463   4.609  1.00  0.00    -0.353 OA
ATOM    786  C1'  DC A  33      23.327  89.059   3.615  1.00  0.00     0.264 C 
ATOM    787  N1   DC A  33      24.627  89.396   4.219  1.00  0.00    -0.278 N 
ATOM    788  C6   DC A  33      25.107  88.687   5.286  1.00  0.00     0.102 A 
ATOM    789  C2   DC A  33      25.365  90.455   3.687  1.00  0.00     0.352 A 
ATOM    790  O2   DC A  33      24.913  91.076   2.715  1.00  0.00    -0.244 OA
ATOM    791  N3   DC A  33      26.554  90.775   4.242  1.00  0.00    -0.177 NA
ATOM    792  C4   DC A  33      27.010  90.084   5.288  1.00  0.00     0.128 A 
ATOM    793  N4   DC A  33      28.183  90.444   5.806  1.00  0.00    -0.384 N 
ATOM    794  H41  DC A  33      28.567  89.951   6.599  1.00  0.00     0.157 HD
ATOM    795  H42  DC A  33      28.685  91.222   5.399  1.00  0.00     0.157 HD
ATOM    796  C5   DC A  33      26.281  88.996   5.848  1.00  0.00     0.067 A 
ATOM    797  C2'  DC A  33      23.427  88.067   2.456  1.00  0.00     0.199 C 
ATOM    798  O2'  DC A  33      22.343  88.291   1.573  1.00  0.00    -0.388 OA
ATOM    799 'HO2  DC A  33      21.726  87.568   1.699  1.00  0.00     0.210 HD
ATOM    800  C3'  DC A  33      23.273  86.743   3.193  1.00  0.00     0.198 C 
ATOM    801  O3'  DC A  33      22.829  85.692   2.339  1.00  0.00    -0.279 OA
ATOM    802  P    DC A  34      23.905  84.775   1.572  1.00  0.00     0.408 P 
ATOM    803  OP1  DC A  34      23.152  83.753   0.802  1.00  0.00    -0.624 OA
ATOM    804  OP2  DC A  34      24.938  84.345   2.548  1.00  0.00    -0.624 OA
ATOM    805  O5'  DC A  34      24.592  85.769   0.533  1.00  0.00    -0.287 OA
ATOM    806  C5'  DC A  34      23.837  86.368  -0.519  1.00  0.00     0.216 C 
ATOM    807  C4'  DC A  34      24.725  87.257  -1.359  1.00  0.00     0.180 C 
ATOM    808  O4'  DC A  34      25.071  88.440  -0.598  1.00  0.00    -0.353 OA
ATOM    809  C1'  DC A  34      26.353  88.895  -0.989  1.00  0.00     0.264 C 
ATOM    810  N1   DC A  34      27.188  89.025   0.216  1.00  0.00    -0.278 N 
ATOM    811  C6   DC A  34      26.962  88.244   1.315  1.00  0.00     0.102 A 
ATOM    812  C2   DC A  34      28.225  89.960   0.217  1.00  0.00     0.352 A 
ATOM    813  O2   DC A  34      28.406  90.659  -0.792  1.00  0.00    -0.244 OA
ATOM    814  N3   DC A  34      29.002  90.083   1.312  1.00  0.00    -0.177 NA
ATOM    815  C4   DC A  34      28.774  89.320   2.382  1.00  0.00     0.128 A 
ATOM    816  N4   DC A  34      29.568  89.479   3.438  1.00  0.00    -0.384 N 
ATOM    817  H41  DC A  34      29.433  88.923   4.270  1.00  0.00     0.157 HD
ATOM    818  H42  DC A  34      30.305  90.171   3.400  1.00  0.00     0.157 HD
ATOM    819  C5   DC A  34      27.722  88.360   2.412  1.00  0.00     0.067 A 
ATOM    820  C2'  DC A  34      26.915  87.908  -2.016  1.00  0.00     0.198 C 
ATOM    821  O2'  DC A  34      26.672  88.421  -3.312  1.00  0.00    -0.388 OA
ATOM    822 'HO2  DC A  34      26.494  87.671  -3.882  1.00  0.00     0.210 HD
ATOM    823  C3'  DC A  34      26.072  86.665  -1.745  1.00  0.00     0.182 C 
ATOM    824  O3'  DC A  34      25.981  85.807  -2.889  1.00  0.00    -0.390 OA
ATOM    825 'HO3  DC A  34      25.277  85.177  -2.713  1.00  0.00     0.210 HD
ENDROOT
TORSDOF 264
ENDMDL
