MODEL 1
REMARK VINA RESULT:      -2.5      0.000      0.000
REMARK WARNING: 32 MAX_TORS EXCEEDED!!!
REMARK  101 active torsions:
REMARK  status: ('A' for Active; 'I' for Inactive)
REMARK       I    between atoms: O5'_2  and  C5'_3 
REMARK       I    between atoms: C5'_3  and  C4'_4 
REMARK       I    between atoms: C1'_6  and  N9_7 
REMARK       I    between atoms: C2_10  and  N2_11 
REMARK    1  A    between atoms: C2'_21  and  O2'_22 
REMARK    2  A    between atoms: C3'_24  and  O3'_25 
REMARK    3  A    between atoms: O3'_25  and  P_26 
REMARK    4  A    between atoms: P_26  and  O5'_29 
REMARK       I    between atoms: O5'_29  and  C5'_30 
REMARK       I    between atoms: C5'_30  and  C4'_31 
REMARK       I    between atoms: C1'_33  and  N9_34 
REMARK       I    between atoms: C2_37  and  N2_38 
REMARK       I    between atoms: C2'_48  and  O2'_49 
REMARK       I    between atoms: C3'_51  and  O3'_52 
REMARK       I    between atoms: O3'_52  and  P_53 
REMARK       I    between atoms: P_53  and  O5'_56 
REMARK       I    between atoms: O5'_56  and  C5'_57 
REMARK       I    between atoms: C5'_57  and  C4'_58 
REMARK       I    between atoms: C1'_60  and  N1_61 
REMARK       I    between atoms: C4_66  and  N4_67 
REMARK       I    between atoms: C2'_71  and  O2'_72 
REMARK       I    between atoms: C3'_74  and  O3'_75 
REMARK       I    between atoms: O3'_75  and  P_76 
REMARK       I    between atoms: P_76  and  O5'_79 
REMARK       I    between atoms: O5'_79  and  C5'_80 
REMARK       I    between atoms: C5'_80  and  C4'_81 
REMARK       I    between atoms: C1'_83  and  N1_84 
REMARK       I    between atoms: C2'_93  and  O2'_94 
REMARK    5  A    between atoms: C3'_96  and  O3'_97 
REMARK    6  A    between atoms: O3'_97  and  P_98 
REMARK    7  A    between atoms: P_98  and  O5'_101 
REMARK    8  A    between atoms: O5'_101  and  C5'_102 
REMARK    9  A    between atoms: C5'_102  and  C4'_103 
REMARK   10  A    between atoms: C1'_105  and  N1_106 
REMARK       I    between atoms: C4_111  and  N4_112 
REMARK   11  A    between atoms: C2'_116  and  O2'_117 
REMARK   12  A    between atoms: C3'_119  and  O3'_120 
REMARK   13  A    between atoms: O3'_120  and  P_121 
REMARK   14  A    between atoms: P_121  and  O5'_124 
REMARK   15  A    between atoms: O5'_124  and  C5'_125 
REMARK   16  A    between atoms: C5'_125  and  C4'_126 
REMARK   17  A    between atoms: C1'_128  and  N9_129 
REMARK       I    between atoms: C2_132  and  N2_133 
REMARK   18  A    between atoms: C2'_143  and  O2'_144 
REMARK   19  A    between atoms: C3'_146  and  O3'_147 
REMARK       I    between atoms: O3'_147  and  P_148 
REMARK       I    between atoms: P_148  and  O5'_151 
REMARK       I    between atoms: O5'_151  and  C5'_152 
REMARK       I    between atoms: C5'_152  and  C4'_153 
REMARK       I    between atoms: C1'_155  and  N1_156 
REMARK       I    between atoms: C2'_165  and  O2'_166 
REMARK       I    between atoms: C3'_168  and  O3'_169 
REMARK       I    between atoms: O3'_169  and  P_170 
REMARK       I    between atoms: P_170  and  O5'_173 
REMARK       I    between atoms: O5'_173  and  C5'_174 
REMARK       I    between atoms: C5'_174  and  C4'_175 
REMARK       I    between atoms: C1'_177  and  N1_178 
REMARK       I    between atoms: C2'_187  and  O2'_188 
REMARK       I    between atoms: C3'_190  and  O3'_191 
REMARK   20  A    between atoms: O3'_191  and  P_192 
REMARK   21  A    between atoms: P_192  and  O5'_195 
REMARK   22  A    between atoms: O5'_195  and  C5'_196 
REMARK       I    between atoms: C5'_196  and  C4'_197 
REMARK   23  A    between atoms: C1'_199  and  N9_200 
REMARK   24  A    between atoms: C2_203  and  N2_204 
REMARK       I    between atoms: C2'_214  and  O2'_215 
REMARK       I    between atoms: C3'_217  and  O3'_218 
REMARK       I    between atoms: O3'_218  and  P_219 
REMARK       I    between atoms: P_219  and  O5'_222 
REMARK       I    between atoms: O5'_222  and  C5'_223 
REMARK       I    between atoms: C5'_223  and  C4'_224 
REMARK       I    between atoms: C1'_226  and  N9_227 
REMARK       I    between atoms: C2_230  and  N2_231 
REMARK   25  A    between atoms: C2'_241  and  O2'_242 
REMARK   26  A    between atoms: C3'_244  and  O3'_245 
REMARK   27  A    between atoms: O3'_245  and  P_246 
REMARK   28  A    between atoms: P_246  and  O5'_249 
REMARK   29  A    between atoms: O5'_249  and  C5'_250 
REMARK   30  A    between atoms: C5'_250  and  C4'_251 
REMARK       I    between atoms: C1'_253  and  N1_254 
REMARK       I    between atoms: C2'_263  and  O2'_264 
REMARK       I    between atoms: C3'_266  and  O3'_267 
REMARK       I    between atoms: O3'_267  and  P_268 
REMARK       I    between atoms: P_268  and  O5'_271 
REMARK       I    between atoms: O5'_271  and  C5'_272 
REMARK       I    between atoms: C5'_272  and  C4'_273 
REMARK       I    between atoms: C1'_275  and  N1_276 
REMARK       I    between atoms: C4_281  and  N4_282 
REMARK   31  A    between atoms: C2'_286  and  O2'_287 
REMARK   32  A    between atoms: C3'_289  and  O3'_290 
REMARK   33  A    between atoms: O3'_290  and  P_291 
REMARK   34  A    between atoms: P_291  and  O5'_294 
REMARK   35  A    between atoms: O5'_294  and  C5'_295 
REMARK   36  A    between atoms: C5'_295  and  C4'_296 
REMARK   37  A    between atoms: C1'_298  and  N1_299 
REMARK       I    between atoms: C2'_308  and  O2'_309 
REMARK       I    between atoms: C3'_311  and  O3'_312 
REMARK       I    between atoms: O3'_312  and  P_313 
REMARK       I    between atoms: P_313  and  O5'_316 
REMARK       I    between atoms: O5'_316  and  C5'_317 
REMARK       I    between atoms: C5'_317  and  C4'_318 
REMARK       I    between atoms: C1'_320  and  N1_321 
REMARK       I    between atoms: C4_326  and  N4_327 
REMARK       I    between atoms: C2'_331  and  O2'_332 
REMARK       I    between atoms: C3'_334  and  O3'_335 
REMARK       I    between atoms: O3'_335  and  P_336 
REMARK       I    between atoms: P_336  and  O5'_339 
REMARK       I    between atoms: O5'_339  and  C5'_340 
REMARK       I    between atoms: C5'_340  and  C4'_341 
REMARK       I    between atoms: C1'_343  and  N9_344 
REMARK       I    between atoms: C2_347  and  N2_348 
REMARK       I    between atoms: C2'_358  and  O2'_359 
REMARK       I    between atoms: C3'_361  and  O3'_362 
REMARK       I    between atoms: O3'_362  and  P_363 
REMARK       I    between atoms: P_363  and  O5'_366 
REMARK       I    between atoms: O5'_366  and  C5'_367 
REMARK       I    between atoms: C5'_367  and  C4'_368 
REMARK       I    between atoms: C1'_370  and  N1_371 
REMARK       I    between atoms: C4_376  and  N4_377 
REMARK   38  A    between atoms: C2'_381  and  O2'_382 
REMARK   39  A    between atoms: C3'_384  and  O3'_385 
REMARK   40  A    between atoms: O3'_385  and  P_386 
REMARK   41  A    between atoms: P_386  and  O5'_389 
REMARK   42  A    between atoms: O5'_389  and  C5'_390 
REMARK   43  A    between atoms: C5'_390  and  C4'_391 
REMARK       I    between atoms: C1'_393  and  N1_394 
REMARK       I    between atoms: C2'_403  and  O2'_404 
REMARK   44  A    between atoms: C3'_406  and  O3'_407 
REMARK   45  A    between atoms: O3'_407  and  P_408 
REMARK   46  A    between atoms: P_408  and  O5'_411 
REMARK   47  A    between atoms: O5'_411  and  C5'_412 
REMARK       I    between atoms: C5'_412  and  C4'_413 
REMARK       I    between atoms: C1'_415  and  N1_416 
REMARK       I    between atoms: C2'_425  and  O2'_426 
REMARK       I    between atoms: C3'_428  and  O3'_429 
REMARK       I    between atoms: O3'_429  and  P_430 
REMARK       I    between atoms: P_430  and  O5'_433 
REMARK       I    between atoms: O5'_433  and  C5'_434 
REMARK       I    between atoms: C5'_434  and  C4'_435 
REMARK       I    between atoms: C1'_437  and  N1_438 
REMARK       I    between atoms: C2'_447  and  O2'_448 
REMARK       I    between atoms: C3'_450  and  O3'_451 
REMARK       I    between atoms: O3'_451  and  P_452 
REMARK       I    between atoms: P_452  and  O5'_455 
REMARK       I    between atoms: O5'_455  and  C5'_456 
REMARK       I    between atoms: C5'_456  and  C4'_457 
REMARK       I    between atoms: C1'_459  and  N9_460 
REMARK       I    between atoms: C2_463  and  N2_464 
REMARK       I    between atoms: C2'_474  and  O2'_475 
REMARK       I    between atoms: C3'_477  and  O3'_478 
REMARK       I    between atoms: O3'_478  and  P_479 
REMARK       I    between atoms: P_479  and  O5'_482 
REMARK       I    between atoms: O5'_482  and  C5'_483 
REMARK       I    between atoms: C5'_483  and  C4'_484 
REMARK       I    between atoms: C1'_486  and  N9_487 
REMARK       I    between atoms: C2_490  and  N2_491 
REMARK       I    between atoms: C2'_501  and  O2'_502 
REMARK       I    between atoms: C3'_504  and  O3'_505 
REMARK       I    between atoms: O3'_505  and  P_506 
REMARK       I    between atoms: P_506  and  O5'_509 
REMARK       I    between atoms: O5'_509  and  C5'_510 
REMARK       I    between atoms: C5'_510  and  C4'_511 
REMARK       I    between atoms: C1'_513  and  N9_514 
REMARK       I    between atoms: C2_517  and  N2_518 
REMARK       I    between atoms: C2'_528  and  O2'_529 
REMARK       I    between atoms: C3'_531  and  O3'_532 
REMARK       I    between atoms: O3'_532  and  P_533 
REMARK       I    between atoms: P_533  and  O5'_536 
REMARK       I    between atoms: O5'_536  and  C5'_537 
REMARK       I    between atoms: C5'_537  and  C4'_538 
REMARK       I    between atoms: C1'_540  and  N1_541 
REMARK       I    between atoms: C2'_550  and  O2'_551 
REMARK       I    between atoms: C3'_553  and  O3'_554 
REMARK       I    between atoms: O3'_554  and  P_555 
REMARK       I    between atoms: P_555  and  O5'_558 
REMARK       I    between atoms: O5'_558  and  C5'_559 
REMARK       I    between atoms: C5'_559  and  C4'_560 
REMARK       I    between atoms: C1'_562  and  N9_563 
REMARK       I    between atoms: C2_566  and  N2_567 
REMARK       I    between atoms: C2'_577  and  O2'_578 
REMARK       I    between atoms: C3'_580  and  O3'_581 
REMARK       I    between atoms: O3'_581  and  P_582 
REMARK       I    between atoms: P_582  and  O5'_585 
REMARK       I    between atoms: O5'_585  and  C5'_586 
REMARK   48  A    between atoms: C5'_586  and  C4'_587 
REMARK   49  A    between atoms: C1'_589  and  N1_590 
REMARK       I    between atoms: C4_595  and  N4_596 
REMARK   50  A    between atoms: C2'_600  and  O2'_601 
REMARK   51  A    between atoms: C3'_603  and  O3'_604 
REMARK   52  A    between atoms: O3'_604  and  P_605 
REMARK   53  A    between atoms: P_605  and  O5'_608 
REMARK   54  A    between atoms: O5'_608  and  C5'_609 
REMARK       I    between atoms: C5'_609  and  C4'_610 
REMARK       I    between atoms: C1'_612  and  N9_613 
REMARK       I    between atoms: C2_616  and  N2_617 
REMARK       I    between atoms: C2'_627  and  O2'_628 
REMARK       I    between atoms: C3'_630  and  O3'_631 
REMARK       I    between atoms: O3'_631  and  P_632 
REMARK       I    between atoms: P_632  and  O5'_635 
REMARK       I    between atoms: O5'_635  and  C5'_636 
REMARK       I    between atoms: C5'_636  and  C4'_637 
REMARK       I    between atoms: C1'_639  and  N9_640 
REMARK       I    between atoms: C6_645  and  N6_646 
REMARK       I    between atoms: C2'_652  and  O2'_653 
REMARK       I    between atoms: C3'_655  and  O3'_656 
REMARK       I    between atoms: O3'_656  and  P_657 
REMARK       I    between atoms: P_657  and  O5'_660 
REMARK       I    between atoms: O5'_660  and  C5'_661 
REMARK       I    between atoms: C5'_661  and  C4'_662 
REMARK       I    between atoms: C1'_664  and  N9_665 
REMARK   55  A    between atoms: C2_668  and  N2_669 
REMARK   56  A    between atoms: C2'_679  and  O2'_680 
REMARK   57  A    between atoms: C3'_682  and  O3'_683 
REMARK   58  A    between atoms: O3'_683  and  P_684 
REMARK   59  A    between atoms: P_684  and  O5'_687 
REMARK   60  A    between atoms: O5'_687  and  C5'_688 
REMARK   61  A    between atoms: C5'_688  and  C4'_689 
REMARK   62  A    between atoms: C1'_691  and  N9_692 
REMARK       I    between atoms: C6_697  and  N6_698 
REMARK       I    between atoms: C2'_704  and  O2'_705 
REMARK       I    between atoms: C3'_707  and  O3'_708 
REMARK       I    between atoms: O3'_708  and  P_709 
REMARK       I    between atoms: P_709  and  O5'_712 
REMARK       I    between atoms: O5'_712  and  C5'_713 
REMARK       I    between atoms: C5'_713  and  C4'_714 
REMARK       I    between atoms: C1'_716  and  N9_717 
REMARK       I    between atoms: C2_720  and  N2_721 
REMARK       I    between atoms: C2'_731  and  O2'_732 
REMARK       I    between atoms: C3'_734  and  O3'_735 
REMARK       I    between atoms: O3'_735  and  P_736 
REMARK       I    between atoms: P_736  and  O5'_739 
REMARK       I    between atoms: O5'_739  and  C5'_740 
REMARK       I    between atoms: C5'_740  and  C4'_741 
REMARK       I    between atoms: C1'_743  and  N9_744 
REMARK       I    between atoms: C2_747  and  N2_748 
REMARK       I    between atoms: C2'_758  and  O2'_759 
REMARK       I    between atoms: C3'_761  and  O3'_762 
REMARK       I    between atoms: O3'_762  and  P_763 
REMARK       I    between atoms: P_763  and  O5'_766 
REMARK       I    between atoms: O5'_766  and  C5'_767 
REMARK       I    between atoms: C5'_767  and  C4'_768 
REMARK       I    between atoms: C1'_770  and  N9_771 
REMARK       I    between atoms: C2_774  and  N2_775 
REMARK       I    between atoms: C2'_785  and  O2'_786 
REMARK       I    between atoms: C3'_788  and  O3'_789 
REMARK       I    between atoms: O3'_789  and  P_790 
REMARK       I    between atoms: P_790  and  O5'_793 
REMARK       I    between atoms: O5'_793  and  C5'_794 
REMARK       I    between atoms: C5'_794  and  C4'_795 
REMARK       I    between atoms: C1'_797  and  N1_798 
REMARK       I    between atoms: C2'_807  and  O2'_808 
REMARK       I    between atoms: C3'_810  and  O3'_811 
REMARK       I    between atoms: O3'_811  and  P_812 
REMARK       I    between atoms: P_812  and  O5'_815 
REMARK       I    between atoms: O5'_815  and  C5'_816 
REMARK       I    between atoms: C5'_816  and  C4'_817 
REMARK       I    between atoms: C1'_819  and  N1_820 
REMARK   63  A    between atoms: C2'_829  and  O2'_830 
REMARK   64  A    between atoms: C3'_832  and  O3'_833 
REMARK   65  A    between atoms: O3'_833  and  P_834 
REMARK   66  A    between atoms: P_834  and  O5'_837 
REMARK   67  A    between atoms: O5'_837  and  C5'_838 
REMARK   68  A    between atoms: C5'_838  and  C4'_839 
REMARK       I    between atoms: C1'_841  and  N1_842 
REMARK       I    between atoms: C4_847  and  N4_848 
REMARK       I    between atoms: C2'_852  and  O2'_853 
REMARK       I    between atoms: C3'_855  and  O3'_856 
REMARK       I    between atoms: O3'_856  and  P_857 
REMARK       I    between atoms: P_857  and  O5'_860 
REMARK       I    between atoms: O5'_860  and  C5'_861 
REMARK       I    between atoms: C5'_861  and  C4'_862 
REMARK       I    between atoms: C1'_864  and  N9_865 
REMARK       I    between atoms: C6_870  and  N6_871 
REMARK       I    between atoms: C2'_877  and  O2'_878 
REMARK       I    between atoms: C3'_880  and  O3'_881 
REMARK       I    between atoms: O3'_881  and  P_882 
REMARK       I    between atoms: P_882  and  O5'_885 
REMARK   69  A    between atoms: O5'_885  and  C5'_886 
REMARK   70  A    between atoms: C5'_886  and  C4'_887 
REMARK   71  A    between atoms: C1'_889  and  N9_890 
REMARK       I    between atoms: C6_895  and  N6_896 
REMARK   72  A    between atoms: C2'_902  and  O2'_903 
REMARK   73  A    between atoms: C3'_905  and  O3'_906 
REMARK   74  A    between atoms: O3'_906  and  P_907 
REMARK   75  A    between atoms: P_907  and  O5'_910 
REMARK   76  A    between atoms: O5'_910  and  C5'_911 
REMARK   77  A    between atoms: C5'_911  and  C4'_912 
REMARK   78  A    between atoms: C1'_914  and  N9_915 
REMARK       I    between atoms: C6_920  and  N6_921 
REMARK       I    between atoms: C2'_927  and  O2'_928 
REMARK   79  A    between atoms: C3'_930  and  O3'_931 
REMARK       I    between atoms: O3'_931  and  P_932 
REMARK       I    between atoms: P_932  and  O5'_935 
REMARK       I    between atoms: O5'_935  and  C5'_936 
REMARK       I    between atoms: C5'_936  and  C4'_937 
REMARK       I    between atoms: C1'_939  and  N1_940 
REMARK       I    between atoms: C2'_949  and  O2'_950 
REMARK       I    between atoms: C3'_952  and  O3'_953 
REMARK       I    between atoms: O3'_953  and  P_954 
REMARK       I    between atoms: P_954  and  O5'_957 
REMARK       I    between atoms: O5'_957  and  C5'_958 
REMARK       I    between atoms: C5'_958  and  C4'_959 
REMARK       I    between atoms: C1'_961  and  N1_962 
REMARK       I    between atoms: C4_967  and  N4_968 
REMARK       I    between atoms: C2'_972  and  O2'_973 
REMARK       I    between atoms: C3'_975  and  O3'_976 
REMARK       I    between atoms: O3'_976  and  P_977 
REMARK       I    between atoms: P_977  and  O5'_980 
REMARK       I    between atoms: O5'_980  and  C5'_981 
REMARK       I    between atoms: C5'_981  and  C4'_982 
REMARK       I    between atoms: C1'_984  and  N1_985 
REMARK       I    between atoms: C4_990  and  N4_991 
REMARK       I    between atoms: C2'_995  and  O2'_996 
REMARK       I    between atoms: C3'_998  and  O3'_999 
REMARK       I    between atoms: O3'_999  and  P_1000 
REMARK       I    between atoms: P_1000  and  O5'_1003 
REMARK       I    between atoms: O5'_1003  and  C5'_1004 
REMARK       I    between atoms: C5'_1004  and  C4'_1005 
REMARK   80  A    between atoms: C1'_1007  and  N1_1008 
REMARK       I    between atoms: C4_1013  and  N4_1014 
REMARK   81  A    between atoms: C2'_1018  and  O2'_1019 
REMARK   82  A    between atoms: C3'_1021  and  O3'_1022 
REMARK   83  A    between atoms: O3'_1022  and  P_1023 
REMARK   84  A    between atoms: P_1023  and  O5'_1026 
REMARK   85  A    between atoms: O5'_1026  and  C5'_1027 
REMARK   86  A    between atoms: C5'_1027  and  C4'_1028 
REMARK   87  A    between atoms: C1'_1030  and  N9_1031 
REMARK       I    between atoms: C2_1034  and  N2_1035 
REMARK       I    between atoms: C2'_1045  and  O2'_1046 
REMARK       I    between atoms: C3'_1048  and  O3'_1049 
REMARK       I    between atoms: O3'_1049  and  P_1050 
REMARK       I    between atoms: P_1050  and  O5'_1053 
REMARK       I    between atoms: O5'_1053  and  C5'_1054 
REMARK       I    between atoms: C5'_1054  and  C4'_1055 
REMARK       I    between atoms: C1'_1057  and  N9_1058 
REMARK       I    between atoms: C2_1061  and  N2_1062 
REMARK   88  A    between atoms: C2'_1072  and  O2'_1073 
REMARK   89  A    between atoms: C3'_1075  and  O3'_1076 
REMARK   90  A    between atoms: O3'_1076  and  P_1077 
REMARK       I    between atoms: P_1077  and  O5'_1080 
REMARK       I    between atoms: O5'_1080  and  C5'_1081 
REMARK       I    between atoms: C5'_1081  and  C4'_1082 
REMARK       I    between atoms: C1'_1084  and  N9_1085 
REMARK       I    between atoms: C6_1090  and  N6_1091 
REMARK       I    between atoms: C2'_1097  and  O2'_1098 
REMARK       I    between atoms: C3'_1100  and  O3'_1101 
REMARK   91  A    between atoms: O3'_1101  and  P_1102 
REMARK   92  A    between atoms: P_1102  and  O5'_1105 
REMARK   93  A    between atoms: O5'_1105  and  C5'_1106 
REMARK   94  A    between atoms: C5'_1106  and  C4'_1107 
REMARK   95  A    between atoms: C1'_1109  and  N1_1110 
REMARK       I    between atoms: C4_1115  and  N4_1116 
REMARK   96  A    between atoms: C2'_1120  and  O2'_1121 
REMARK   97  A    between atoms: C3'_1123  and  O3'_1124 
REMARK   98  A    between atoms: O3'_1124  and  P_1125 
REMARK   99  A    between atoms: P_1125  and  O5'_1128 
REMARK  100  A    between atoms: O5'_1128  and  C5'_1129 
REMARK  101  A    between atoms: C5'_1129  and  C4'_1130 
REMARK       I    between atoms: C1'_1132  and  N9_1133 
REMARK       I    between atoms: C2_1136  and  N2_1137 
REMARK       I    between atoms: C2'_1147  and  O2'_1148 
REMARK       I    between atoms: C3'_1150  and  O3'_1151 
REMARK       I    between atoms: O3'_1151  and  P_1152 
REMARK       I    between atoms: P_1152  and  O5'_1155 
REMARK       I    between atoms: O5'_1155  and  C5'_1156 
REMARK       I    between atoms: C5'_1156  and  C4'_1157 
REMARK       I    between atoms: C1'_1159  and  N9_1160 
REMARK       I    between atoms: C6_1165  and  N6_1166 
REMARK       I    between atoms: C2'_1172  and  O2'_1173 
REMARK       I    between atoms: C3'_1175  and  O3'_1176 
REMARK       I    between atoms: O3'_1176  and  P_1177 
REMARK       I    between atoms: P_1177  and  O5'_1180 
REMARK       I    between atoms: O5'_1180  and  C5'_1181 
REMARK       I    between atoms: C5'_1181  and  C4'_1182 
REMARK       I    between atoms: C1'_1184  and  N9_1185 
REMARK       I    between atoms: C2_1188  and  N2_1189 
REMARK       I    between atoms: C2'_1199  and  O2'_1200 
REMARK       I    between atoms: C3'_1202  and  O3'_1203 
REMARK       I    between atoms: O3'_1203  and  P_1204 
REMARK       I    between atoms: P_1204  and  O5'_1207 
REMARK       I    between atoms: O5'_1207  and  C5'_1208 
REMARK       I    between atoms: C5'_1208  and  C4'_1209 
REMARK       I    between atoms: C1'_1211  and  N1_1212 
REMARK       I    between atoms: C4_1217  and  N4_1218 
REMARK       I    between atoms: C2'_1222  and  O2'_1223 
REMARK       I    between atoms: C3'_1225  and  O3'_1226 
REMARK       I    between atoms: O3'_1226  and  P_1227 
REMARK       I    between atoms: P_1227  and  O5'_1230 
REMARK       I    between atoms: O5'_1230  and  C5'_1231 
REMARK       I    between atoms: C5'_1231  and  C4'_1232 
REMARK       I    between atoms: C1'_1234  and  N1_1235 
REMARK       I    between atoms: C4_1240  and  N4_1241 
REMARK       I    between atoms: C2'_1245  and  O2'_1246 
REMARK       I    between atoms: C3'_1248  and  O3'_1249 
REMARK       I    between atoms: O3'_1249  and  P_1250 
REMARK       I    between atoms: P_1250  and  O5'_1253 
REMARK       I    between atoms: O5'_1253  and  C5'_1254 
REMARK       I    between atoms: C5'_1254  and  C4'_1255 
REMARK       I    between atoms: C1'_1257  and  N1_1258 
REMARK       I    between atoms: C4_1263  and  N4_1264 
REMARK       I    between atoms: C2'_1268  and  O2'_1269 
REMARK       I    between atoms: C3'_1271  and  O3'_1272 
ROOT
ATOM      1 'HO5   G A   1     -43.057   7.493  51.037  1.00  0.00     0.209 HD
ATOM      2  O5'   G A   1     -43.820   7.985  51.349  1.00  0.00    -0.398 OA
ATOM      3  C5'   G A   1     -43.366   9.298  51.689  1.00  0.00     0.198 C 
ATOM      4  C4'   G A   1     -41.967   9.535  51.168  1.00  0.00     0.180 C 
ATOM      5  O4'   G A   1     -41.047   8.670  51.891  1.00  0.00    -0.353 OA
ATOM      6  C1'   G A   1     -40.134   8.077  50.986  1.00  0.00     0.262 C 
ATOM      7  N9    G A   1     -40.431   6.650  50.902  1.00  0.00    -0.293 N 
ATOM      8  C4    G A   1     -39.806   5.732  50.091  1.00  0.00     0.187 A 
ATOM      9  N3    G A   1     -38.801   5.990  49.229  1.00  0.00    -0.044 NA
ATOM     10  C2    G A   1     -38.412   4.904  48.586  1.00  0.00     0.703 A 
ATOM     11  N2    G A   1     -37.424   4.980  47.691  1.00  0.00    -0.233 N 
ATOM     12  H21   G A   1     -36.984   5.871  47.515  1.00  0.00     0.174 HD
ATOM     13  H22   G A   1     -37.121   4.154  47.195  1.00  0.00     0.174 HD
ATOM     14  N1    G A   1     -38.962   3.663  48.773  1.00  0.00    -0.153 N 
ATOM     15  H1    G A   1     -38.589   2.901  48.230  1.00  0.00     0.187 HD
ATOM     16  C6    G A   1     -39.996   3.371  49.654  1.00  0.00     0.292 A 
ATOM     17  O6    G A   1     -40.418   2.211  49.745  1.00  0.00    -0.265 OA
ATOM     18  C5    G A   1     -40.428   4.529  50.353  1.00  0.00     0.173 A 
ATOM     19  N7    G A   1     -41.420   4.685  51.312  1.00  0.00    -0.234 NA
ATOM     20  C8    G A   1     -41.384   5.956  51.607  1.00  0.00     0.214 A 
ATOM     21  C2'   G A   1     -40.280   8.814  49.656  1.00  0.00     0.199 C 
ATOM     22  C3'   G A   1     -41.754   9.195  49.698  1.00  0.00     0.198 C 
ENDROOT
BRANCH  22  23
ATOM     23  O3'   G A   1     -42.055  10.306  48.856  1.00  0.00    -0.279 OA
BRANCH  23  24
ATOM     24  P     G A   2     -42.150  11.784  49.483  1.00  0.00     0.408 P 
ATOM     25  OP2   G A   2     -43.578  12.088  49.759  1.00  0.00    -0.624 OA
ATOM     26  OP1   G A   2     -41.157  11.857  50.585  1.00  0.00    -0.624 OA
BRANCH  24  27
ATOM     27  O5'   G A   2     -41.656  12.735  48.305  1.00  0.00    -0.287 OA
ATOM     28  C5'   G A   2     -42.415  13.878  47.917  1.00  0.00     0.216 C 
ATOM     29  C4'   G A   2     -41.771  14.556  46.730  1.00  0.00     0.180 C 
ATOM     30  C3'   G A   2     -41.396  13.643  45.572  1.00  0.00     0.198 C 
ATOM     31  O4'   G A   2     -40.505  15.137  47.141  1.00  0.00    -0.353 OA
ATOM     32  C2'   G A   2     -40.299  14.440  44.876  1.00  0.00     0.199 C 
ATOM     33  O3'   G A   2     -42.510  13.386  44.720  1.00  0.00    -0.279 OA
ATOM     34  O2'   G A   2     -40.845  15.484  44.091  1.00  0.00    -0.388 OA
ATOM     35  C1'   G A   2     -39.575  15.054  46.074  1.00  0.00     0.262 C 
ATOM     36 'HO2   G A   2     -41.747  15.234  43.890  1.00  0.00     0.210 HD
ATOM     37  N9    G A   2     -38.426  14.274  46.523  1.00  0.00    -0.293 N 
ATOM     38  C8    G A   2     -38.320  13.536  47.676  1.00  0.00     0.214 A 
ATOM     39  C4    G A   2     -37.227  14.137  45.865  1.00  0.00     0.187 A 
ATOM     40  N7    G A   2     -37.163  12.948  47.808  1.00  0.00    -0.234 NA
ATOM     41  C5    G A   2     -36.460  13.319  46.669  1.00  0.00     0.173 A 
ATOM     42  C6    G A   2     -35.145  12.990  46.250  1.00  0.00     0.292 A 
ATOM     43  O6    G A   2     -34.307  12.282  46.821  1.00  0.00    -0.265 OA
ATOM     44  N1    G A   2     -34.835  13.579  45.029  1.00  0.00    -0.153 N 
ATOM     45  H1    G A   2     -33.920  13.401  44.648  1.00  0.00     0.187 HD
ATOM     46  C2    G A   2     -35.678  14.382  44.306  1.00  0.00     0.703 A 
ATOM     47  N2    G A   2     -35.196  14.853  43.154  1.00  0.00    -0.233 N 
ATOM     48  N3    G A   2     -36.903  14.698  44.683  1.00  0.00    -0.044 NA
ATOM     49  H22   G A   2     -34.259  14.616  42.857  1.00  0.00     0.174 HD
ATOM     50  H21   G A   2     -35.776  15.450  42.581  1.00  0.00     0.174 HD
ATOM     51  P     C A   3     -42.565  12.026  43.864  1.00  0.00     0.408 P 
ATOM     52  OP2   C A   3     -42.305  10.883  44.776  1.00  0.00    -0.624 OA
ATOM     53  O5'   C A   3     -41.333  12.151  42.860  1.00  0.00    -0.287 OA
ATOM     54  OP1   C A   3     -43.817  12.057  43.065  1.00  0.00    -0.624 OA
ATOM     55  C5'   C A   3     -41.283  13.193  41.888  1.00  0.00     0.216 C 
ATOM     56  C4'   C A   3     -40.067  13.028  41.006  1.00  0.00     0.180 C 
ATOM     57  C3'   C A   3     -39.756  11.607  40.562  1.00  0.00     0.198 C 
ATOM     58  O4'   C A   3     -38.878  13.421  41.745  1.00  0.00    -0.353 OA
ATOM     59  O3'   C A   3     -40.547  11.205  39.447  1.00  0.00    -0.279 OA
ATOM     60  C2'   C A   3     -38.274  11.700  40.223  1.00  0.00     0.199 C 
ATOM     61  P     T A   4     -40.783   9.641  39.160  1.00  0.00     0.408 P 
ATOM     62  O5'   T A   4     -39.341   9.102  38.749  1.00  0.00    -0.287 OA
ATOM     63  OP1   T A   4     -41.674   9.537  37.976  1.00  0.00    -0.624 OA
ATOM     64  OP2   T A   4     -41.177   8.983  40.434  1.00  0.00    -0.624 OA
ATOM     65  C5'   T A   4     -38.786   9.400  37.468  1.00  0.00     0.216 C 
ATOM     66  C4'   T A   4     -37.310   9.068  37.443  1.00  0.00     0.180 C 
ATOM     67  C3'   T A   4     -36.961   7.590  37.409  1.00  0.00     0.198 C 
ATOM     68  O4'   T A   4     -36.678   9.523  38.667  1.00  0.00    -0.353 OA
ATOM     69  C2'   T A   4     -35.513   7.596  37.889  1.00  0.00     0.199 C 
ATOM     70  O2'   T A   4     -34.632   7.983  36.852  1.00  0.00    -0.388 OA
ATOM     71  C1'   T A   4     -35.547   8.711  38.939  1.00  0.00     0.264 C 
ATOM     72 'HO2   T A   4     -34.910   7.520  36.062  1.00  0.00     0.210 HD
ATOM     73  N1    T A   4     -35.647   8.210  40.318  1.00  0.00    -0.280 N 
ATOM     74  C2    T A   4     -34.515   7.644  40.877  1.00  0.00     0.331 A 
ATOM     75  C6    T A   4     -36.822   8.295  41.030  1.00  0.00     0.104 A 
ATOM     76  O2    T A   4     -33.456   7.552  40.283  1.00  0.00    -0.246 OA
ATOM     77  N3    T A   4     -34.667   7.189  42.160  1.00  0.00    -0.275 N 
ATOM     78  H3    T A   4     -33.853   6.770  42.586  1.00  0.00     0.173 HD
ATOM     79  C4    T A   4     -35.808   7.241  42.928  1.00  0.00     0.250 A 
ATOM     80  C5    T A   4     -36.933   7.842  42.283  1.00  0.00     0.092 A 
ATOM     81  O4    T A   4     -35.787   6.784  44.072  1.00  0.00    -0.268 OA
ATOM     82  C1'   C A   3     -37.781  12.618  41.341  1.00  0.00     0.264 C 
ATOM     83  O2'   C A   3     -38.069  12.348  38.981  1.00  0.00    -0.388 OA
ATOM     84  N1    C A   3     -37.275  11.886  42.514  1.00  0.00    -0.278 N 
ATOM     85  C2    C A   3     -35.960  11.420  42.498  1.00  0.00     0.352 A 
ATOM     86  C6    C A   3     -38.074  11.660  43.601  1.00  0.00     0.102 A 
ATOM     87  N3    C A   3     -35.485  10.741  43.565  1.00  0.00    -0.177 NA
ATOM     88  O2    C A   3     -35.257  11.640  41.503  1.00  0.00    -0.244 OA
ATOM     89  C4    C A   3     -36.270  10.524  44.621  1.00  0.00     0.128 A 
ATOM     90  N4    C A   3     -35.756   9.851  45.648  1.00  0.00    -0.384 N 
ATOM     91  C5    C A   3     -37.616  10.990  44.668  1.00  0.00     0.067 A 
ATOM     92  H41   C A   3     -36.315   9.665  46.468  1.00  0.00     0.157 HD
ATOM     93  H42   C A   3     -34.799   9.527  45.602  1.00  0.00     0.157 HD
ATOM     94 'HO2   C A   3     -38.759  12.043  38.392  1.00  0.00     0.210 HD
BRANCH  67  95
ATOM     95  O3'   T A   4     -37.104   7.039  36.103  1.00  0.00    -0.279 OA
BRANCH  95  96
ATOM     96  P     C A   5     -38.012   5.730  35.882  1.00  0.00     0.408 P 
ATOM     97  OP1   C A   5     -37.358   4.908  34.833  1.00  0.00    -0.624 OA
ATOM     98  OP2   C A   5     -39.423   6.160  35.704  1.00  0.00    -0.624 OA
BRANCH  96  99
ATOM     99  O5'   C A   5     -37.905   4.947  37.267  1.00  0.00    -0.287 OA
BRANCH  99 100
ATOM    100  C5'   C A   5     -36.810   4.074  37.533  1.00  0.00     0.216 C 
BRANCH 100 101
ATOM    101  C4'   C A   5     -36.320   4.264  38.950  1.00  0.00     0.180 C 
ATOM    102  C3'   C A   5     -35.958   2.994  39.702  1.00  0.00     0.198 C 
ATOM    103  C2'   C A   5     -36.047   3.441  41.159  1.00  0.00     0.199 C 
ATOM    104  C1'   C A   5     -37.212   4.433  41.105  1.00  0.00     0.264 C 
ATOM    105  O4'   C A   5     -37.380   4.836  39.757  1.00  0.00    -0.353 OA
BRANCH 102 106
ATOM    106  O3'   C A   5     -34.658   2.524  39.355  1.00  0.00    -0.279 OA
BRANCH 106 107
ATOM    107  P     G A   6     -34.293   0.969  39.546  1.00  0.00     0.408 P 
ATOM    108  OP1   G A   6     -35.576   0.229  39.668  1.00  0.00    -0.624 OA
ATOM    109  OP2   G A   6     -33.274   0.852  40.620  1.00  0.00    -0.624 OA
BRANCH 107 110
ATOM    110  O5'   G A   6     -33.610   0.558  38.165  1.00  0.00    -0.287 OA
BRANCH 110 111
ATOM    111  C5'   G A   6     -33.740   1.381  37.008  1.00  0.00     0.216 C 
BRANCH 111 112
ATOM    112  C4'   G A   6     -32.495   1.290  36.155  1.00  0.00     0.180 C 
ATOM    113  C3'   G A   6     -32.173  -0.091  35.603  1.00  0.00     0.198 C 
ATOM    114  C2'   G A   6     -30.675   0.012  35.342  1.00  0.00     0.199 C 
ATOM    115  C1'   G A   6     -30.224   0.848  36.540  1.00  0.00     0.262 C 
ATOM    116  O4'   G A   6     -31.333   1.623  36.962  1.00  0.00    -0.353 OA
BRANCH 113 117
ATOM    117  O3'   G A   6     -32.916  -0.372  34.420  1.00  0.00    -0.279 OA
ATOM    118  P     T A   7     -32.555   0.389  33.048  1.00  0.00     0.408 P 
ATOM    119  OP1   T A   7     -33.419  -0.183  31.983  1.00  0.00    -0.624 OA
ATOM    120  OP2   T A   7     -31.080   0.384  32.877  1.00  0.00    -0.624 OA
ATOM    121  O5'   T A   7     -33.017   1.892  33.306  1.00  0.00    -0.287 OA
ATOM    122  C5'   T A   7     -34.397   2.220  33.464  1.00  0.00     0.216 C 
ATOM    123  C4'   T A   7     -34.542   3.632  33.981  1.00  0.00     0.180 C 
ATOM    124  C3'   T A   7     -34.008   4.724  33.066  1.00  0.00     0.198 C 
ATOM    125  O4'   T A   7     -33.762   3.777  35.193  1.00  0.00    -0.353 OA
ATOM    126  O3'   T A   7     -34.967   5.085  32.075  1.00  0.00    -0.279 OA
ATOM    127  C2'   T A   7     -33.718   5.865  34.037  1.00  0.00     0.199 C 
ATOM    128  P     T A   8     -34.498   5.888  30.762  1.00  0.00     0.408 P 
ATOM    129  OP2   T A   8     -33.038   5.684  30.583  1.00  0.00    -0.624 OA
ATOM    130  OP1   T A   8     -35.431   5.525  29.665  1.00  0.00    -0.624 OA
ATOM    131  O5'   T A   8     -34.742   7.417  31.140  1.00  0.00    -0.287 OA
ATOM    132  C5'   T A   8     -36.061   7.946  31.266  1.00  0.00     0.216 C 
ATOM    133  C4'   T A   8     -36.006   9.450  31.413  1.00  0.00     0.180 C 
ATOM    134  C3'   T A   8     -35.159  10.170  30.370  1.00  0.00     0.198 C 
ATOM    135  O4'   T A   8     -35.385   9.770  32.690  1.00  0.00    -0.353 OA
ATOM    136  C2'   T A   8     -34.664  11.396  31.127  1.00  0.00     0.199 C 
ATOM    137  O3'   T A   8     -35.925  10.520  29.221  1.00  0.00    -0.279 OA
ATOM    138  O2'   T A   8     -35.670  12.388  31.204  1.00  0.00    -0.388 OA
ATOM    139  C1'   T A   8     -34.441  10.810  32.519  1.00  0.00     0.264 C 
ATOM    140 'HO2   T A   8     -36.320  12.169  30.536  1.00  0.00     0.210 HD
ATOM    141  N1    T A   8     -33.094  10.253  32.718  1.00  0.00    -0.280 N 
ATOM    142  C2    T A   8     -32.117  11.090  33.227  1.00  0.00     0.331 A 
ATOM    143  C6    T A   8     -32.813   8.944  32.406  1.00  0.00     0.104 A 
ATOM    144  O2    T A   8     -32.325  12.254  33.518  1.00  0.00    -0.246 OA
ATOM    145  N3    T A   8     -30.884  10.512  33.383  1.00  0.00    -0.275 N 
ATOM    146  H3    T A   8     -30.155  11.103  33.748  1.00  0.00     0.173 HD
ATOM    147  C4    T A   8     -30.535   9.212  33.090  1.00  0.00     0.250 A 
ATOM    148  C5    T A   8     -31.599   8.415  32.571  1.00  0.00     0.092 A 
ATOM    149  O4    T A   8     -29.381   8.836  33.292  1.00  0.00    -0.268 OA
ATOM    150  O2'   T A   7     -34.893   6.592  34.337  1.00  0.00    -0.388 OA
ATOM    151  C1'   T A   7     -33.281   5.106  35.292  1.00  0.00     0.264 C 
ATOM    152 'HO2   T A   7     -35.491   6.481  33.597  1.00  0.00     0.210 HD
ATOM    153  N1    T A   7     -31.824   5.059  35.477  1.00  0.00    -0.280 N 
ATOM    154  C6    T A   7     -31.101   3.920  35.201  1.00  0.00     0.104 A 
ATOM    155  C2    T A   7     -31.199   6.202  35.940  1.00  0.00     0.331 A 
ATOM    156  C5    T A   7     -29.777   3.854  35.370  1.00  0.00     0.092 A 
ATOM    157  C4    T A   7     -29.061   4.994  35.848  1.00  0.00     0.250 A 
ATOM    158  N3    T A   7     -29.842   6.098  36.099  1.00  0.00    -0.275 N 
ATOM    159  O4    T A   7     -27.848   5.056  36.046  1.00  0.00    -0.268 OA
ATOM    160  H3    T A   7     -29.370   6.925  36.432  1.00  0.00     0.173 HD
ATOM    161  O2    T A   7     -31.800   7.230  36.192  1.00  0.00    -0.246 OA
BRANCH 137 162
ATOM    162  P     G A   9     -35.238  10.494  27.766  1.00  0.00     0.408 P 
ATOM    163  OP2   G A   9     -35.589   9.208  27.112  1.00  0.00    -0.624 OA
ATOM    164  OP1   G A   9     -35.579  11.774  27.094  1.00  0.00    -0.624 OA
BRANCH 162 165
ATOM    165  O5'   G A   9     -33.675  10.490  28.072  1.00  0.00    -0.287 OA
BRANCH 165 166
ATOM    166  C5'   G A   9     -32.928  11.706  28.104  1.00  0.00     0.216 C 
ATOM    167  C4'   G A   9     -31.500  11.456  27.674  1.00  0.00     0.180 C 
ATOM    168  C3'   G A   9     -31.319  10.952  26.248  1.00  0.00     0.198 C 
ATOM    169  O4'   G A   9     -30.935  10.405  28.506  1.00  0.00    -0.353 OA
ATOM    170  O3'   G A   9     -31.268  12.028  25.314  1.00  0.00    -0.279 OA
ATOM    171  C2'   G A   9     -29.998  10.195  26.331  1.00  0.00     0.199 C 
ATOM    172  P     G A  10     -31.686  11.776  23.780  1.00  0.00     0.408 P 
ATOM    173  OP1   G A  10     -31.602  13.084  23.082  1.00  0.00    -0.624 OA
ATOM    174  OP2   G A  10     -32.962  11.015  23.757  1.00  0.00    -0.624 OA
ATOM    175  O5'   G A  10     -30.532  10.837  23.208  1.00  0.00    -0.287 OA
ATOM    176  C5'   G A  10     -29.168  11.260  23.210  1.00  0.00     0.216 C 
ATOM    177  C4'   G A  10     -28.273  10.139  22.736  1.00  0.00     0.180 C 
ATOM    178  O4'   G A  10     -28.648   8.915  23.434  1.00  0.00    -0.353 OA
ATOM    179  C3'   G A  10     -28.372   9.816  21.245  1.00  0.00     0.198 C 
ATOM    180  C1'   G A  10     -28.916   7.900  22.492  1.00  0.00     0.262 C 
ATOM    181  C2'   G A  10     -29.317   8.620  21.210  1.00  0.00     0.199 C 
ATOM    182  N9    G A  10     -29.941   7.015  23.034  1.00  0.00    -0.293 N 
ATOM    183  C8    G A  10     -31.001   7.361  23.836  1.00  0.00     0.214 A 
ATOM    184  C4    G A  10     -30.035   5.659  22.833  1.00  0.00     0.187 A 
ATOM    185  N7    G A  10     -31.758   6.346  24.156  1.00  0.00    -0.234 NA
ATOM    186  C5    G A  10     -31.159   5.262  23.527  1.00  0.00     0.173 A 
ATOM    187  C6    G A  10     -31.526   3.890  23.505  1.00  0.00     0.292 A 
ATOM    188  O6    G A  10     -32.485   3.336  24.056  1.00  0.00    -0.265 OA
ATOM    189  N1    G A  10     -30.640   3.137  22.744  1.00  0.00    -0.153 N 
ATOM    190  H1    G A  10     -30.821   2.148  22.666  1.00  0.00     0.187 HD
ATOM    191  C2    G A  10     -29.542   3.636  22.091  1.00  0.00     0.703 A 
ATOM    192  N3    G A  10     -29.188   4.907  22.102  1.00  0.00    -0.044 NA
ATOM    193  N2    G A  10     -28.806   2.750  21.414  1.00  0.00    -0.233 N 
ATOM    194  H22   G A  10     -29.073   1.775  21.396  1.00  0.00     0.174 HD
ATOM    195  H21   G A  10     -27.986   3.061  20.917  1.00  0.00     0.174 HD
ATOM    196  O2'   G A   9     -28.896  11.084  26.314  1.00  0.00    -0.388 OA
ATOM    197  C1'   G A   9     -30.100   9.570  27.723  1.00  0.00     0.262 C 
ATOM    198 'HO2   G A   9     -29.231  11.930  26.017  1.00  0.00     0.210 HD
BRANCH 181 199
ATOM    199  O2'   G A  10     -29.040   7.779  20.105  1.00  0.00    -0.388 OA
ATOM    200 'HO2   G A  10     -28.822   6.917  20.461  1.00  0.00     0.210 HD
ENDBRANCH 181 199
BRANCH 179 201
ATOM    201  O3'   G A  10     -27.093   9.501  20.698  1.00  0.00    -0.279 OA
BRANCH 201 202
ATOM    202  P     T A  11     -25.785  10.272  21.228  1.00  0.00     0.408 P 
ATOM    203  OP2   T A  11     -26.181  11.647  21.625  1.00  0.00    -0.624 OA
ATOM    204  OP1   T A  11     -25.113   9.391  22.216  1.00  0.00    -0.624 OA
BRANCH 202 205
ATOM    205  O5'   T A  11     -24.854  10.382  19.940  1.00  0.00    -0.287 OA
BRANCH 205 206
ATOM    206  C5'   T A  11     -24.816  11.570  19.151  1.00  0.00     0.216 C 
BRANCH 206 207
ATOM    207  C4'   T A  11     -23.590  11.569  18.266  1.00  0.00     0.180 C 
ATOM    208  O4'   T A  11     -23.632  12.742  17.401  1.00  0.00    -0.353 OA
ATOM    209  C1'   T A  11     -22.363  13.374  17.390  1.00  0.00     0.264 C 
ATOM    210  C2'   T A  11     -21.374  12.367  17.973  1.00  0.00     0.199 C 
ATOM    211  N1    T A  11     -22.457  14.625  18.157  1.00  0.00    -0.280 N 
ATOM    212  O2'   T A  11     -20.972  11.474  16.951  1.00  0.00    -0.388 OA
ATOM    213  C3'   T A  11     -22.256  11.670  18.999  1.00  0.00     0.198 C 
ATOM    214 'HO2   T A  11     -20.888  10.611  17.358  1.00  0.00     0.210 HD
ATOM    215  O3'   T A  11     -21.758  10.388  19.366  1.00  0.00    -0.279 OA
ATOM    216  P     C A  12     -20.997  10.197  20.772  1.00  0.00     0.408 P 
ATOM    217  O5'   C A  12     -19.590  10.912  20.547  1.00  0.00    -0.287 OA
ATOM    218  OP2   C A  12     -21.736  10.954  21.814  1.00  0.00    -0.624 OA
ATOM    219  OP1   C A  12     -20.756   8.744  20.952  1.00  0.00    -0.624 OA
ATOM    220  C5'   C A  12     -18.590  10.322  19.718  1.00  0.00     0.216 C 
ATOM    221  C4'   C A  12     -17.426  11.271  19.546  1.00  0.00     0.180 C 
ATOM    222  O4'   C A  12     -17.917  12.531  19.011  1.00  0.00    -0.353 OA
ATOM    223  C3'   C A  12     -16.705  11.663  20.828  1.00  0.00     0.198 C 
ATOM    224  C1'   C A  12     -17.209  13.608  19.600  1.00  0.00     0.264 C 
ATOM    225  C2'   C A  12     -16.096  13.009  20.458  1.00  0.00     0.199 C 
ATOM    226  N1    C A  12     -18.162  14.432  20.364  1.00  0.00    -0.278 N 
ATOM    227  C6    C A  12     -19.422  13.975  20.637  1.00  0.00     0.102 A 
ATOM    228  C2    C A  12     -17.758  15.695  20.809  1.00  0.00     0.352 A 
ATOM    229  C5    C A  12     -20.293  14.721  21.328  1.00  0.00     0.067 A 
ATOM    230  C4    C A  12     -19.854  16.004  21.766  1.00  0.00     0.128 A 
ATOM    231  N3    C A  12     -18.627  16.458  21.509  1.00  0.00    -0.177 NA
ATOM    232  N4    C A  12     -20.676  16.793  22.456  1.00  0.00    -0.384 N 
ATOM    233  H42   C A  12     -20.360  17.702  22.763  1.00  0.00     0.157 HD
ATOM    234  H41   C A  12     -21.615  16.487  22.672  1.00  0.00     0.157 HD
ATOM    235  O2    C A  12     -16.610  16.084  20.554  1.00  0.00    -0.244 OA
ATOM    236  C6    T A  11     -23.615  14.976  18.814  1.00  0.00     0.104 A 
ATOM    237  C2    T A  11     -21.340  15.438  18.203  1.00  0.00     0.331 A 
ATOM    238  C5    T A  11     -23.718  16.097  19.533  1.00  0.00     0.092 A 
ATOM    239  C4    T A  11     -22.604  16.983  19.638  1.00  0.00     0.250 A 
ATOM    240  N3    T A  11     -21.484  16.578  18.949  1.00  0.00    -0.275 N 
ATOM    241  O4    T A  11     -22.565  18.022  20.296  1.00  0.00    -0.268 OA
ATOM    242  H3    T A  11     -20.680  17.188  19.000  1.00  0.00     0.173 HD
ATOM    243  O2    T A  11     -20.302  15.171  17.628  1.00  0.00    -0.246 OA
BRANCH 225 244
ATOM    244  O2'   C A  12     -14.941  12.849  19.656  1.00  0.00    -0.388 OA
ATOM    245 'HO2   C A  12     -14.850  11.912  19.481  1.00  0.00     0.210 HD
ENDBRANCH 225 244
BRANCH 223 246
ATOM    246  O3'   C A  12     -15.718  10.703  21.197  1.00  0.00    -0.279 OA
BRANCH 246 247
ATOM    247  P     T A  13     -15.800   9.982  22.633  1.00  0.00     0.408 P 
ATOM    248  OP2   T A  13     -14.545   9.217  22.849  1.00  0.00    -0.624 OA
ATOM    249  OP1   T A  13     -16.212  11.010  23.621  1.00  0.00    -0.624 OA
BRANCH 247 250
ATOM    250  O5'   T A  13     -16.992   8.937  22.473  1.00  0.00    -0.287 OA
BRANCH 250 251
ATOM    251  C5'   T A  13     -18.110   8.956  23.359  1.00  0.00     0.216 C 
BRANCH 251 252
ATOM    252  C4'   T A  13     -17.685   8.542  24.749  1.00  0.00     0.180 C 
ATOM    253  O4'   T A  13     -18.252   9.470  25.716  1.00  0.00    -0.353 OA
ATOM    254  C1'   T A  13     -18.659   8.761  26.877  1.00  0.00     0.264 C 
ATOM    255  C2'   T A  13     -18.160   7.325  26.723  1.00  0.00     0.199 C 
ATOM    256  O2'   T A  13     -16.841   7.245  27.232  1.00  0.00    -0.388 OA
ATOM    257  C3'   T A  13     -18.177   7.177  25.210  1.00  0.00     0.198 C 
ATOM    258 'HO2   T A  13     -16.316   6.799  26.567  1.00  0.00     0.210 HD
ATOM    259  O3'   T A  13     -17.331   6.124  24.755  1.00  0.00    -0.279 OA
ATOM    260  P     C A  14     -17.915   4.630  24.627  1.00  0.00     0.408 P 
ATOM    261  O5'   C A  14     -18.229   4.208  26.132  1.00  0.00    -0.287 OA
ATOM    262  OP1   C A  14     -16.817   3.766  24.123  1.00  0.00    -0.624 OA
ATOM    263  OP2   C A  14     -19.200   4.691  23.886  1.00  0.00    -0.624 OA
ATOM    264  C5'   C A  14     -17.181   4.076  27.090  1.00  0.00     0.216 C 
ATOM    265  C4'   C A  14     -17.747   3.681  28.436  1.00  0.00     0.180 C 
ATOM    266  O4'   C A  14     -18.517   4.789  28.979  1.00  0.00    -0.353 OA
ATOM    267  C3'   C A  14     -18.738   2.527  28.427  1.00  0.00     0.198 C 
ATOM    268  C1'   C A  14     -19.619   4.283  29.718  1.00  0.00     0.264 C 
ATOM    269  C2'   C A  14     -19.499   2.760  29.724  1.00  0.00     0.199 C 
ATOM    270  N1    C A  14     -20.863   4.773  29.097  1.00  0.00    -0.278 N 
ATOM    271  O2'   C A  14     -18.729   2.368  30.845  1.00  0.00    -0.388 OA
ATOM    272 'HO2   C A  14     -18.072   1.750  30.524  1.00  0.00     0.210 HD
ATOM    273  C2    C A  14     -22.020   4.853  29.878  1.00  0.00     0.352 A 
ATOM    274  C6    C A  14     -20.891   5.142  27.782  1.00  0.00     0.102 A 
ATOM    275  O2    C A  14     -21.967   4.513  31.067  1.00  0.00    -0.244 OA
ATOM    276  N3    C A  14     -23.165   5.298  29.316  1.00  0.00    -0.177 NA
ATOM    277  C4    C A  14     -23.182   5.660  28.033  1.00  0.00     0.128 A 
ATOM    278  C5    C A  14     -22.018   5.591  27.214  1.00  0.00     0.067 A 
ATOM    279  N4    C A  14     -24.334   6.098  27.526  1.00  0.00    -0.384 N 
ATOM    280  H42   C A  14     -25.155   6.142  28.112  1.00  0.00     0.157 HD
ATOM    281  H41   C A  14     -24.390   6.383  26.560  1.00  0.00     0.157 HD
ATOM    282  O3'   C A  14     -18.086   1.260  28.393  1.00  0.00    -0.279 OA
ATOM    283  P     G A  15     -18.876  -0.029  27.842  1.00  0.00     0.408 P 
ATOM    284  OP1   G A  15     -17.924  -1.168  27.854  1.00  0.00    -0.624 OA
ATOM    285  OP2   G A  15     -19.560   0.343  26.576  1.00  0.00    -0.624 OA
ATOM    286  O5'   G A  15     -19.991  -0.301  28.948  1.00  0.00    -0.287 OA
ATOM    287  C5'   G A  15     -19.627  -0.611  30.293  1.00  0.00     0.216 C 
ATOM    288  C4'   G A  15     -20.864  -0.859  31.127  1.00  0.00     0.180 C 
ATOM    289  O4'   G A  15     -21.551   0.399  31.362  1.00  0.00    -0.353 OA
ATOM    290  C3'   G A  15     -21.936  -1.728  30.490  1.00  0.00     0.198 C 
ATOM    291  C1'   G A  15     -22.942   0.156  31.491  1.00  0.00     0.262 C 
ATOM    292  N9    G A  15     -23.651   0.980  30.517  1.00  0.00    -0.293 N 
ATOM    293  C2'   G A  15     -23.171  -1.344  31.296  1.00  0.00     0.199 C 
ATOM    294  C8    G A  15     -23.132   1.570  29.391  1.00  0.00     0.214 A 
ATOM    295  C4    G A  15     -24.982   1.315  30.550  1.00  0.00     0.187 A 
ATOM    296  N7    G A  15     -24.015   2.249  28.711  1.00  0.00    -0.234 NA
ATOM    297  C5    G A  15     -25.192   2.095  29.433  1.00  0.00     0.173 A 
ATOM    298  C6    G A  15     -26.496   2.599  29.187  1.00  0.00     0.292 A 
ATOM    299  N1    G A  15     -27.392   2.201  30.172  1.00  0.00    -0.153 N 
ATOM    300  O6    G A  15     -26.886   3.306  28.251  1.00  0.00    -0.265 OA
ATOM    301  H1    G A  15     -28.346   2.514  30.081  1.00  0.00     0.187 HD
ATOM    302  C2    G A  15     -27.077   1.417  31.252  1.00  0.00     0.703 A 
ATOM    303  N3    G A  15     -25.870   0.940  31.493  1.00  0.00    -0.044 NA
ATOM    304  N2    G A  15     -28.077   1.139  32.091  1.00  0.00    -0.233 N 
ATOM    305  H21   G A  15     -27.899   0.565  32.902  1.00  0.00     0.174 HD
ATOM    306  H22   G A  15     -29.006   1.496  31.913  1.00  0.00     0.174 HD
ATOM    307  O2'   G A  15     -23.170  -1.972  32.564  1.00  0.00    -0.388 OA
ATOM    308 'HO2   G A  15     -22.575  -2.720  32.500  1.00  0.00     0.210 HD
ATOM    309  O3'   G A  15     -21.628  -3.115  30.589  1.00  0.00    -0.279 OA
ATOM    310  P     C A  16     -22.273  -4.152  29.541  1.00  0.00     0.408 P 
ATOM    311  OP2   C A  16     -21.990  -3.668  28.166  1.00  0.00    -0.624 OA
ATOM    312  O5'   C A  16     -23.843  -4.032  29.796  1.00  0.00    -0.287 OA
ATOM    313  OP1   C A  16     -21.842  -5.514  29.944  1.00  0.00    -0.624 OA
ATOM    314  C5'   C A  16     -24.420  -4.463  31.028  1.00  0.00     0.216 C 
ATOM    315  C4'   C A  16     -25.901  -4.162  31.046  1.00  0.00     0.180 C 
ATOM    316  O4'   C A  16     -26.106  -2.727  30.985  1.00  0.00    -0.353 OA
ATOM    317  C3'   C A  16     -26.699  -4.680  29.860  1.00  0.00     0.198 C 
ATOM    318  C1'   C A  16     -27.338  -2.454  30.338  1.00  0.00     0.264 C 
ATOM    319  N1    C A  16     -27.087  -1.526  29.223  1.00  0.00    -0.278 N 
ATOM    320  C2'   C A  16     -27.938  -3.790  29.894  1.00  0.00     0.199 C 
ATOM    321  C2    C A  16     -28.149  -0.762  28.733  1.00  0.00     0.352 A 
ATOM    322  C6    C A  16     -25.842  -1.410  28.669  1.00  0.00     0.102 A 
ATOM    323  N3    C A  16     -27.933   0.091  27.709  1.00  0.00    -0.177 NA
ATOM    324  O2    C A  16     -29.267  -0.883  29.251  1.00  0.00    -0.244 OA
ATOM    325  C4    C A  16     -26.715   0.201  27.178  1.00  0.00     0.128 A 
ATOM    326  C5    C A  16     -25.612  -0.566  27.656  1.00  0.00     0.067 A 
ATOM    327  N4    C A  16     -26.550   1.059  26.174  1.00  0.00    -0.384 N 
ATOM    328  H41   C A  16     -25.643   1.173  25.744  1.00  0.00     0.157 HD
ATOM    329  H42   C A  16     -27.338   1.595  25.839  1.00  0.00     0.157 HD
BRANCH 254 330
ATOM    330  N1    T A  13     -20.120   8.867  26.997  1.00  0.00    -0.280 N 
ATOM    331  C6    T A  13     -20.927   8.909  25.884  1.00  0.00     0.104 A 
ATOM    332  C5    T A  13     -22.256   9.012  25.966  1.00  0.00     0.092 A 
ATOM    333  C4    T A  13     -22.890   9.076  27.244  1.00  0.00     0.250 A 
ATOM    334  N3    T A  13     -22.027   9.024  28.314  1.00  0.00    -0.275 N 
ATOM    335  O4    T A  13     -24.099   9.171  27.449  1.00  0.00    -0.268 OA
ATOM    336  C2    T A  13     -20.661   8.923  28.269  1.00  0.00     0.331 A 
ATOM    337  H3    T A  13     -22.441   9.062  29.233  1.00  0.00     0.173 HD
ATOM    338  O2    T A  13     -19.983   8.884  29.279  1.00  0.00    -0.246 OA
ENDBRANCH 254 330
BRANCH 320 339
ATOM    339  O2'   C A  16     -28.850  -4.226  30.884  1.00  0.00    -0.388 OA
ATOM    340 'HO2   C A  16     -29.704  -4.304  30.458  1.00  0.00     0.210 HD
ENDBRANCH 320 339
BRANCH 317 341
ATOM    341  O3'   C A  16     -27.018  -6.062  29.998  1.00  0.00    -0.279 OA
BRANCH 341 342
ATOM    342  P     T A  17     -26.229  -7.155  29.119  1.00  0.00     0.408 P 
ATOM    343  OP2   T A  17     -27.222  -8.093  28.537  1.00  0.00    -0.624 OA
ATOM    344  OP1   T A  17     -25.301  -6.418  28.223  1.00  0.00    -0.624 OA
BRANCH 342 345
ATOM    345  O5'   T A  17     -25.360  -7.955  30.189  1.00  0.00    -0.287 OA
BRANCH 345 346
ATOM    346  C5'   T A  17     -23.985  -8.248  29.948  1.00  0.00     0.216 C 
BRANCH 346 347
ATOM    347  C4'   T A  17     -23.437  -9.133  31.045  1.00  0.00     0.180 C 
ATOM    348  O4'   T A  17     -22.434 -10.020  30.485  1.00  0.00    -0.353 OA
ATOM    349  C1'   T A  17     -21.420 -10.260  31.448  1.00  0.00     0.264 C 
ATOM    350  N1    T A  17     -20.132  -9.841  30.876  1.00  0.00    -0.280 N 
ATOM    351  C2'   T A  17     -21.802  -9.508  32.724  1.00  0.00     0.199 C 
ATOM    352  C2    T A  17     -19.003 -10.557  31.233  1.00  0.00     0.331 A 
ATOM    353  C6    T A  17     -20.048  -8.771  30.014  1.00  0.00     0.104 A 
ATOM    354  N3    T A  17     -17.834 -10.118  30.669  1.00  0.00    -0.275 N 
ATOM    355  O2    T A  17     -19.035 -11.509  31.992  1.00  0.00    -0.246 OA
ATOM    356  C4    T A  17     -17.680  -9.063  29.799  1.00  0.00     0.250 A 
ATOM    357  H3    T A  17     -16.992 -10.613  30.926  1.00  0.00     0.173 HD
ATOM    358  C5    T A  17     -18.891  -8.373  29.479  1.00  0.00     0.092 A 
ATOM    359  O4    T A  17     -16.558  -8.789  29.376  1.00  0.00    -0.268 OA
ATOM    360  C3'   T A  17     -22.707  -8.413  32.170  1.00  0.00     0.198 C 
ATOM    361  O2'   T A  17     -22.525 -10.385  33.567  1.00  0.00    -0.388 OA
ATOM    362 'HO2   T A  17     -23.372  -9.970  33.735  1.00  0.00     0.210 HD
BRANCH 360 363
ATOM    363  O3'   T A  17     -23.616  -7.909  33.146  1.00  0.00    -0.279 OA
BRANCH 363 364
ATOM    364  P     T A  18     -23.185  -6.668  34.073  1.00  0.00     0.408 P 
ATOM    365  OP2   T A  18     -22.355  -7.183  35.192  1.00  0.00    -0.624 OA
ATOM    366  OP1   T A  18     -22.640  -5.615  33.179  1.00  0.00    -0.624 OA
BRANCH 364 367
ATOM    367  O5'   T A  18     -24.562  -6.144  34.680  1.00  0.00    -0.287 OA
BRANCH 367 368
ATOM    368  C5'   T A  18     -24.826  -4.748  34.806  1.00  0.00     0.216 C 
ATOM    369  C4'   T A  18     -26.308  -4.512  34.982  1.00  0.00     0.180 C 
ATOM    370  C3'   T A  18     -26.986  -5.382  36.031  1.00  0.00     0.198 C 
ATOM    371  O4'   T A  18     -26.987  -4.843  33.741  1.00  0.00    -0.353 OA
ATOM    372  C2'   T A  18     -28.429  -5.429  35.541  1.00  0.00     0.199 C 
ATOM    373  O3'   T A  18     -26.874  -4.815  37.333  1.00  0.00    -0.279 OA
ATOM    374  C1'   T A  18     -28.233  -5.453  34.025  1.00  0.00     0.264 C 
ATOM    375  O2'   T A  18     -29.126  -4.249  35.892  1.00  0.00    -0.388 OA
ATOM    376  N1    T A  18     -28.225  -6.807  33.452  1.00  0.00    -0.280 N 
ATOM    377  C6    T A  18     -27.139  -7.640  33.604  1.00  0.00     0.104 A 
ATOM    378  C2    T A  18     -29.348  -7.220  32.758  1.00  0.00     0.331 A 
ATOM    379  C5    T A  18     -27.111  -8.878  33.102  1.00  0.00     0.092 A 
ATOM    380  C4    T A  18     -28.235  -9.380  32.376  1.00  0.00     0.250 A 
ATOM    381  O4    T A  18     -28.328 -10.497  31.870  1.00  0.00    -0.268 OA
ATOM    382  N3    T A  18     -29.284  -8.496  32.259  1.00  0.00    -0.275 N 
ATOM    383  H3    T A  18     -30.095  -8.820  31.753  1.00  0.00     0.173 HD
ATOM    384  O2    T A  18     -30.324  -6.512  32.596  1.00  0.00    -0.246 OA
ATOM    385 'HO2   T A  18     -28.614  -3.818  36.576  1.00  0.00     0.210 HD
ATOM    386  P     T A  19     -25.715  -5.318  38.331  1.00  0.00     0.408 P 
ATOM    387  O5'   T A  19     -26.505  -6.109  39.466  1.00  0.00    -0.287 OA
ATOM    388  OP2   T A  19     -24.840  -6.282  37.616  1.00  0.00    -0.624 OA
ATOM    389  OP1   T A  19     -25.117  -4.110  38.954  1.00  0.00    -0.624 OA
ATOM    390  C5'   T A  19     -27.368  -7.200  39.140  1.00  0.00     0.216 C 
ATOM    391  C4'   T A  19     -28.742  -6.971  39.725  1.00  0.00     0.180 C 
ATOM    392  O4'   T A  19     -28.633  -6.974  41.177  1.00  0.00    -0.353 OA
ATOM    393  C3'   T A  19     -29.390  -5.636  39.368  1.00  0.00     0.198 C 
ATOM    394  C1'   T A  19     -29.003  -5.709  41.687  1.00  0.00     0.264 C 
ATOM    395  N1    T A  19     -28.092  -5.370  42.790  1.00  0.00    -0.280 N 
ATOM    396  C2'   T A  19     -28.956  -4.733  40.516  1.00  0.00     0.199 C 
ATOM    397  C2    T A  19     -28.650  -5.077  44.021  1.00  0.00     0.331 A 
ATOM    398  C6    T A  19     -26.729  -5.344  42.606  1.00  0.00     0.104 A 
ATOM    399  O2    T A  19     -29.851  -5.090  44.225  1.00  0.00    -0.246 OA
ATOM    400  N3    T A  19     -27.749  -4.767  45.007  1.00  0.00    -0.275 N 
ATOM    401  H3    T A  19     -28.135  -4.550  45.913  1.00  0.00     0.173 HD
ATOM    402  C4    T A  19     -26.379  -4.722  44.893  1.00  0.00     0.250 A 
ATOM    403  C5    T A  19     -25.880  -5.038  43.592  1.00  0.00     0.092 A 
ATOM    404  O4    T A  19     -25.701  -4.427  45.877  1.00  0.00    -0.268 OA
ATOM    405  O2'   T A  19     -29.900  -3.702  40.743  1.00  0.00    -0.388 OA
ATOM    406 'HO2   T A  19     -30.733  -4.008  40.381  1.00  0.00     0.210 HD
ATOM    407  O3'   T A  19     -30.809  -5.750  39.287  1.00  0.00    -0.279 OA
ATOM    408  P     G A  20     -31.530  -5.771  37.850  1.00  0.00     0.408 P 
ATOM    409  O5'   G A  20     -33.019  -6.237  38.173  1.00  0.00    -0.287 OA
ATOM    410  OP1   G A  20     -30.882  -6.833  37.040  1.00  0.00    -0.624 OA
ATOM    411  OP2   G A  20     -31.578  -4.379  37.336  1.00  0.00    -0.624 OA
ATOM    412  C5'   G A  20     -33.293  -7.128  39.253  1.00  0.00     0.216 C 
ATOM    413  C4'   G A  20     -34.674  -7.724  39.100  1.00  0.00     0.180 C 
ATOM    414  C3'   G A  20     -34.880  -8.563  37.844  1.00  0.00     0.198 C 
ATOM    415  O4'   G A  20     -35.636  -6.637  39.011  1.00  0.00    -0.353 OA
ATOM    416  O3'   G A  20     -35.791  -9.635  38.077  1.00  0.00    -0.279 OA
ATOM    417  C2'   G A  20     -35.420  -7.554  36.835  1.00  0.00     0.199 C 
ATOM    418  P     G A  21     -35.332 -11.151  37.799  1.00  0.00     0.408 P 
ATOM    419  OP1   G A  21     -36.539 -11.900  37.371  1.00  0.00    -0.624 OA
ATOM    420  O5'   G A  21     -34.340 -11.037  36.556  1.00  0.00    -0.287 OA
ATOM    421  OP2   G A  21     -34.555 -11.622  38.974  1.00  0.00    -0.624 OA
ATOM    422  C5'   G A  21     -34.805 -10.590  35.283  1.00  0.00     0.216 C 
ATOM    423  C4'   G A  21     -34.561 -11.651  34.233  1.00  0.00     0.180 C 
ATOM    424  C3'   G A  21     -35.670 -11.788  33.192  1.00  0.00     0.198 C 
ATOM    425  O4'   G A  21     -34.470 -12.950  34.888  1.00  0.00    -0.353 OA
ATOM    426  C2'   G A  21     -36.499 -12.955  33.717  1.00  0.00     0.199 C 
ATOM    427  O3'   G A  21     -35.142 -12.053  31.894  1.00  0.00    -0.279 OA
ATOM    428  C1'   G A  21     -35.406 -13.835  34.314  1.00  0.00     0.262 C 
ATOM    429  O2'   G A  21     -37.124 -13.657  32.660  1.00  0.00    -0.388 OA
ATOM    430  N9    G A  21     -35.857 -14.764  35.346  1.00  0.00    -0.293 N 
ATOM    431  C8    G A  21     -36.930 -14.615  36.190  1.00  0.00     0.214 A 
ATOM    432  C4    G A  21     -35.280 -15.970  35.664  1.00  0.00     0.187 A 
ATOM    433  N7    G A  21     -37.084 -15.618  37.011  1.00  0.00    -0.234 NA
ATOM    434  C5    G A  21     -36.046 -16.483  36.689  1.00  0.00     0.173 A 
ATOM    435  C6    G A  21     -35.692 -17.744  37.240  1.00  0.00     0.292 A 
ATOM    436  O6    G A  21     -36.243 -18.369  38.153  1.00  0.00    -0.265 OA
ATOM    437  N1    G A  21     -34.569 -18.277  36.617  1.00  0.00    -0.153 N 
ATOM    438  H1    G A  21     -34.247 -19.173  36.947  1.00  0.00     0.187 HD
ATOM    439  C2    G A  21     -33.876 -17.679  35.598  1.00  0.00     0.703 A 
ATOM    440  N2    G A  21     -32.821 -18.350  35.129  1.00  0.00    -0.233 N 
ATOM    441  N3    G A  21     -34.192 -16.508  35.074  1.00  0.00    -0.044 NA
ATOM    442  H22   G A  21     -32.566 -19.245  35.518  1.00  0.00     0.174 HD
ATOM    443  H21   G A  21     -32.279 -17.948  34.377  1.00  0.00     0.174 HD
ATOM    444 'HO2   G A  21     -36.697 -13.366  31.852  1.00  0.00     0.210 HD
ATOM    445  P     G A  22     -34.673 -10.833  30.955  1.00  0.00     0.408 P 
ATOM    446  OP1   G A  22     -34.846 -11.273  29.547  1.00  0.00    -0.624 OA
ATOM    447  O5'   G A  22     -35.736  -9.682  31.248  1.00  0.00    -0.287 OA
ATOM    448  OP2   G A  22     -33.342 -10.367  31.419  1.00  0.00    -0.624 OA
ATOM    449  C5'   G A  22     -37.105  -9.827  30.868  1.00  0.00     0.216 C 
ATOM    450  C4'   G A  22     -37.871  -8.567  31.198  1.00  0.00     0.180 C 
ATOM    451  O4'   G A  22     -37.631  -8.227  32.593  1.00  0.00    -0.353 OA
ATOM    452  C3'   G A  22     -37.456  -7.331  30.411  1.00  0.00     0.198 C 
ATOM    453  C1'   G A  22     -37.405  -6.835  32.716  1.00  0.00     0.262 C 
ATOM    454  C2'   G A  22     -37.768  -6.195  31.377  1.00  0.00     0.199 C 
ATOM    455  N9    G A  22     -36.015  -6.626  33.109  1.00  0.00    -0.293 N 
ATOM    456  O2'   G A  22     -39.150  -5.889  31.376  1.00  0.00    -0.388 OA
ATOM    457 'HO2   G A  22     -39.505  -6.238  30.558  1.00  0.00     0.210 HD
ATOM    458  C8    G A  22     -35.050  -7.588  33.281  1.00  0.00     0.214 A 
ATOM    459  C4    G A  22     -35.413  -5.422  33.382  1.00  0.00     0.187 A 
ATOM    460  N7    G A  22     -33.894  -7.099  33.639  1.00  0.00    -0.234 NA
ATOM    461  C5    G A  22     -34.109  -5.729  33.707  1.00  0.00     0.173 A 
ATOM    462  C6    G A  22     -33.222  -4.674  34.044  1.00  0.00     0.292 A 
ATOM    463  O6    G A  22     -32.030  -4.739  34.361  1.00  0.00    -0.265 OA
ATOM    464  N1    G A  22     -33.853  -3.437  33.985  1.00  0.00    -0.153 N 
ATOM    465  C2    G A  22     -35.167  -3.239  33.647  1.00  0.00     0.703 A 
ATOM    466  H1    G A  22     -33.298  -2.628  34.210  1.00  0.00     0.187 HD
ATOM    467  N3    G A  22     -36.006  -4.210  33.333  1.00  0.00    -0.044 NA
ATOM    468  N2    G A  22     -35.590  -1.972  33.645  1.00  0.00    -0.233 N 
ATOM    469  H21   G A  22     -36.549  -1.773  33.402  1.00  0.00     0.174 HD
ATOM    470  H22   G A  22     -34.959  -1.223  33.886  1.00  0.00     0.174 HD
ATOM    471  O3'   G A  22     -38.187  -7.224  29.192  1.00  0.00    -0.279 OA
ATOM    472  P     T A  23     -37.436  -6.767  27.846  1.00  0.00     0.408 P 
ATOM    473  O5'   T A  23     -36.801  -5.353  28.220  1.00  0.00    -0.287 OA
ATOM    474  OP2   T A  23     -36.327  -7.718  27.580  1.00  0.00    -0.624 OA
ATOM    475  OP1   T A  23     -38.477  -6.545  26.812  1.00  0.00    -0.624 OA
ATOM    476  C5'   T A  23     -37.627  -4.250  28.588  1.00  0.00     0.216 C 
ATOM    477  C4'   T A  23     -36.773  -3.089  29.038  1.00  0.00     0.180 C 
ATOM    478  C3'   T A  23     -35.699  -2.653  28.051  1.00  0.00     0.198 C 
ATOM    479  O4'   T A  23     -36.038  -3.477  30.231  1.00  0.00    -0.353 OA
ATOM    480  O3'   T A  23     -36.213  -1.731  27.094  1.00  0.00    -0.279 OA
ATOM    481  C2'   T A  23     -34.649  -2.029  28.961  1.00  0.00     0.199 C 
ATOM    482  P     G A  24     -35.927  -1.960  25.528  1.00  0.00     0.408 P 
ATOM    483  OP2   G A  24     -36.042  -3.412  25.232  1.00  0.00    -0.624 OA
ATOM    484  OP1   G A  24     -36.767  -0.991  24.780  1.00  0.00    -0.624 OA
ATOM    485  O5'   G A  24     -34.403  -1.534  25.350  1.00  0.00    -0.287 OA
ATOM    486  C5'   G A  24     -33.934  -0.272  25.818  1.00  0.00     0.216 C 
ATOM    487  C4'   G A  24     -32.423  -0.253  25.850  1.00  0.00     0.180 C 
ATOM    488  O4'   G A  24     -31.959  -1.102  26.934  1.00  0.00    -0.353 OA
ATOM    489  C3'   G A  24     -31.732  -0.817  24.618  1.00  0.00     0.198 C 
ATOM    490  C1'   G A  24     -30.752  -1.741  26.553  1.00  0.00     0.262 C 
ATOM    491  C2'   G A  24     -30.369  -1.215  25.169  1.00  0.00     0.199 C 
ATOM    492  N9    G A  24     -30.963  -3.186  26.589  1.00  0.00    -0.293 N 
ATOM    493  O2'   G A  24     -29.533  -0.084  25.329  1.00  0.00    -0.388 OA
ATOM    494 'HO2   G A  24     -29.907   0.614  24.790  1.00  0.00     0.210 HD
ATOM    495  C4    G A  24     -29.993  -4.155  26.497  1.00  0.00     0.187 A 
ATOM    496  C8    G A  24     -32.159  -3.847  26.719  1.00  0.00     0.214 A 
ATOM    497  C5    G A  24     -30.667  -5.356  26.581  1.00  0.00     0.173 A 
ATOM    498  N3    G A  24     -28.669  -3.941  26.356  1.00  0.00    -0.044 NA
ATOM    499  C6    G A  24     -29.921  -6.563  26.517  1.00  0.00     0.292 A 
ATOM    500  N7    G A  24     -32.033  -5.146  26.721  1.00  0.00    -0.234 NA
ATOM    501  O6    G A  24     -30.331  -7.729  26.575  1.00  0.00    -0.265 OA
ATOM    502  N1    G A  24     -28.562  -6.317  26.371  1.00  0.00    -0.153 N 
ATOM    503  H1    G A  24     -27.950  -7.116  26.315  1.00  0.00     0.187 HD
ATOM    504  C2    G A  24     -27.989  -5.072  26.296  1.00  0.00     0.703 A 
ATOM    505  N2    G A  24     -26.663  -5.041  26.155  1.00  0.00    -0.233 N 
ATOM    506  H22   G A  24     -26.134  -5.902  26.109  1.00  0.00     0.174 HD
ATOM    507  H21   G A  24     -26.191  -4.151  26.095  1.00  0.00     0.174 HD
ATOM    508  O3'   G A  24     -31.641   0.150  23.576  1.00  0.00    -0.279 OA
ATOM    509  P     C A  25     -31.584  -0.331  22.042  1.00  0.00     0.408 P 
ATOM    510  OP2   C A  25     -32.625  -1.369  21.832  1.00  0.00    -0.624 OA
ATOM    511  OP1   C A  25     -31.588   0.891  21.198  1.00  0.00    -0.624 OA
ATOM    512  O5'   C A  25     -30.157  -1.024  21.908  1.00  0.00    -0.287 OA
ATOM    513  C5'   C A  25     -28.958  -0.286  22.141  1.00  0.00     0.216 C 
ATOM    514  C1'   T A  23     -34.721  -2.955  30.173  1.00  0.00     0.264 C 
ATOM    515  O2'   T A  23     -35.028  -0.725  29.362  1.00  0.00    -0.388 OA
ATOM    516  N1    T A  23     -33.779  -4.083  30.114  1.00  0.00    -0.280 N 
ATOM    517  C6    T A  23     -34.043  -5.195  29.347  1.00  0.00     0.104 A 
ATOM    518  C2    T A  23     -32.611  -3.986  30.850  1.00  0.00     0.331 A 
ATOM    519  C5    T A  23     -33.196  -6.225  29.265  1.00  0.00     0.092 A 
ATOM    520  C4    T A  23     -31.963  -6.197  29.990  1.00  0.00     0.250 A 
ATOM    521  O4    T A  23     -31.087  -7.062  29.962  1.00  0.00    -0.268 OA
ATOM    522  N3    T A  23     -31.768  -5.061  30.743  1.00  0.00    -0.275 N 
ATOM    523  H3    T A  23     -30.918  -5.023  31.285  1.00  0.00     0.173 HD
ATOM    524  O2    T A  23     -32.346  -3.021  31.545  1.00  0.00    -0.246 OA
ATOM    525 'HO2   T A  23     -35.633  -0.398  28.694  1.00  0.00     0.210 HD
ATOM    526  C1'   G A  20     -36.245  -6.637  37.735  1.00  0.00     0.262 C 
ATOM    527  O2'   G A  20     -36.291  -8.173  35.908  1.00  0.00    -0.388 OA
ATOM    528  N9    G A  20     -36.314  -5.259  37.261  1.00  0.00    -0.293 N 
ATOM    529  C8    G A  20     -35.262  -4.405  37.041  1.00  0.00     0.214 A 
ATOM    530  C4    G A  20     -37.453  -4.560  36.942  1.00  0.00     0.187 A 
ATOM    531  N7    G A  20     -35.632  -3.231  36.610  1.00  0.00    -0.234 NA
ATOM    532  C5    G A  20     -37.017  -3.314  36.541  1.00  0.00     0.173 A 
ATOM    533  C6    G A  20     -37.978  -2.351  36.140  1.00  0.00     0.292 A 
ATOM    534  N1    G A  20     -39.272  -2.855  36.225  1.00  0.00    -0.153 N 
ATOM    535  O6    G A  20     -37.795  -1.192  35.750  1.00  0.00    -0.265 OA
ATOM    536  H1    G A  20     -40.023  -2.238  35.958  1.00  0.00     0.187 HD
ATOM    537  C2    G A  20     -39.599  -4.120  36.640  1.00  0.00     0.703 A 
ATOM    538  N3    G A  20     -38.717  -5.027  37.015  1.00  0.00    -0.044 NA
ATOM    539  N2    G A  20     -40.901  -4.416  36.656  1.00  0.00    -0.233 N 
ATOM    540  H21   G A  20     -41.191  -5.337  36.955  1.00  0.00     0.174 HD
ATOM    541  H22   G A  20     -41.588  -3.734  36.372  1.00  0.00     0.174 HD
ATOM    542 'HO2   G A  20     -36.705  -8.907  36.362  1.00  0.00     0.210 HD
BRANCH 513 543
ATOM    543  C4'   C A  25     -27.749  -1.161  21.904  1.00  0.00     0.180 C 
ATOM    544  C3'   C A  25     -26.818  -0.717  20.783  1.00  0.00     0.198 C 
ATOM    545  C2'   C A  25     -26.124  -2.021  20.416  1.00  0.00     0.199 C 
ATOM    546  C1'   C A  25     -27.288  -3.004  20.523  1.00  0.00     0.264 C 
ATOM    547  O4'   C A  25     -28.189  -2.484  21.488  1.00  0.00    -0.353 OA
BRANCH 544 548
ATOM    548  O3'   C A  25     -25.903   0.288  21.211  1.00  0.00    -0.279 OA
BRANCH 548 549
ATOM    549  P     G A  26     -25.723   0.585  22.782  1.00  0.00     0.408 P 
ATOM    550  OP2   G A  26     -26.561   1.758  23.140  1.00  0.00    -0.624 OA
ATOM    551  OP1   G A  26     -25.919  -0.702  23.497  1.00  0.00    -0.624 OA
BRANCH 549 552
ATOM    552  O5'   G A  26     -24.191   1.003  22.923  1.00  0.00    -0.287 OA
BRANCH 552 553
ATOM    553  C5'   G A  26     -23.791   2.013  23.849  1.00  0.00     0.216 C 
ATOM    554  C4'   G A  26     -22.890   3.021  23.171  1.00  0.00     0.180 C 
ATOM    555  C3'   G A  26     -23.435   3.666  21.907  1.00  0.00     0.198 C 
ATOM    556  O4'   G A  26     -21.681   2.364  22.708  1.00  0.00    -0.353 OA
ATOM    557  C2'   G A  26     -22.163   4.178  21.245  1.00  0.00     0.199 C 
ATOM    558  O3'   G A  26     -24.362   4.711  22.190  1.00  0.00    -0.279 OA
ATOM    559  O2'   G A  26     -21.703   5.362  21.869  1.00  0.00    -0.388 OA
ATOM    560  C1'   G A  26     -21.186   3.046  21.565  1.00  0.00     0.262 C 
ATOM    561 'HO2   G A  26     -22.461   5.758  22.299  1.00  0.00     0.210 HD
ATOM    562  N9    G A  26     -21.038   2.085  20.476  1.00  0.00    -0.293 N 
ATOM    563  C4    G A  26     -20.306   2.265  19.328  1.00  0.00     0.187 A 
ATOM    564  C8    G A  26     -21.597   0.834  20.387  1.00  0.00     0.214 A 
ATOM    565  N3    G A  26     -19.593   3.364  19.006  1.00  0.00    -0.044 NA
ATOM    566  C5    G A  26     -20.465   1.101  18.606  1.00  0.00     0.173 A 
ATOM    567  C2    G A  26     -18.995   3.240  17.835  1.00  0.00     0.703 A 
ATOM    568  N2    G A  26     -18.247   4.240  17.364  1.00  0.00    -0.233 N 
ATOM    569  N1    G A  26     -19.089   2.126  17.039  1.00  0.00    -0.153 N 
ATOM    570  H21   G A  26     -18.146   5.082  17.912  1.00  0.00     0.174 HD
ATOM    571  H22   G A  26     -17.784   4.158  16.470  1.00  0.00     0.174 HD
ATOM    572  H1    G A  26     -18.591   2.136  16.162  1.00  0.00     0.187 HD
ATOM    573  C6    G A  26     -19.818   0.983  17.349  1.00  0.00     0.292 A 
ATOM    574  O6    G A  26     -19.837   0.034  16.557  1.00  0.00    -0.265 OA
ATOM    575  N7    G A  26     -21.281   0.207  19.287  1.00  0.00    -0.234 NA
ATOM    576  P     A A  27     -25.385   5.201  21.049  1.00  0.00     0.408 P 
ATOM    577  O5'   A A  27     -24.442   5.796  19.910  1.00  0.00    -0.287 OA
ATOM    578  OP2   A A  27     -26.083   4.010  20.501  1.00  0.00    -0.624 OA
ATOM    579  OP1   A A  27     -26.179   6.316  21.623  1.00  0.00    -0.624 OA
ATOM    580  C5'   A A  27     -23.714   7.006  20.119  1.00  0.00     0.216 C 
ATOM    581  C4'   A A  27     -22.970   7.396  18.862  1.00  0.00     0.180 C 
ATOM    582  C3'   A A  27     -23.782   7.400  17.576  1.00  0.00     0.198 C 
ATOM    583  O4'   A A  27     -21.927   6.423  18.592  1.00  0.00    -0.353 OA
ATOM    584  O3'   A A  27     -24.569   8.580  17.440  1.00  0.00    -0.279 OA
ATOM    585  C2'   A A  27     -22.692   7.302  16.517  1.00  0.00     0.199 C 
ATOM    586  P     G A  28     -25.827   8.588  16.438  1.00  0.00     0.408 P 
ATOM    587  OP2   G A  28     -26.683   7.416  16.750  1.00  0.00    -0.624 OA
ATOM    588  OP1   G A  28     -26.412   9.953  16.475  1.00  0.00    -0.624 OA
ATOM    589  O5'   G A  28     -25.178   8.365  14.999  1.00  0.00    -0.287 OA
ATOM    590  C5'   G A  28     -24.635   9.458  14.262  1.00  0.00     0.216 C 
ATOM    591  C4'   G A  28     -23.784   8.953  13.118  1.00  0.00     0.180 C 
ATOM    592  C3'   G A  28     -24.534   8.519  11.869  1.00  0.00     0.198 C 
ATOM    593  O4'   G A  28     -23.088   7.745  13.515  1.00  0.00    -0.353 OA
ATOM    594  C2'   G A  28     -23.508   7.631  11.171  1.00  0.00     0.199 C 
ATOM    595  C1'   G A  28     -22.823   6.959  12.364  1.00  0.00     0.262 C 
ATOM    596  N9    G A  28     -23.287   5.598  12.613  1.00  0.00    -0.293 N 
ATOM    597  C8    G A  28     -23.982   5.139  13.705  1.00  0.00     0.214 A 
ATOM    598  C4    G A  28     -23.109   4.513  11.786  1.00  0.00     0.187 A 
ATOM    599  N7    G A  28     -24.253   3.864  13.646  1.00  0.00    -0.234 NA
ATOM    600  C5    G A  28     -23.707   3.455  12.436  1.00  0.00     0.173 A 
ATOM    601  C6    G A  28     -23.685   2.175  11.821  1.00  0.00     0.292 A 
ATOM    602  O6    G A  28     -24.156   1.110  12.236  1.00  0.00    -0.265 OA
ATOM    603  N1    G A  28     -23.028   2.208  10.596  1.00  0.00    -0.153 N 
ATOM    604  C2    G A  28     -22.464   3.324  10.035  1.00  0.00     0.703 A 
ATOM    605  H1    G A  28     -22.964   1.342  10.084  1.00  0.00     0.187 HD
ATOM    606  N3    G A  28     -22.474   4.520  10.595  1.00  0.00    -0.044 NA
ATOM    607  O2'   A A  27     -22.050   8.550  16.327  1.00  0.00    -0.388 OA
ATOM    608  C1'   A A  27     -21.708   6.345  17.192  1.00  0.00     0.262 C 
ATOM    609 'HO2   A A  27     -22.742   9.201  16.215  1.00  0.00     0.210 HD
ATOM    610  N9    A A  27     -21.871   4.953  16.772  1.00  0.00    -0.294 N 
ATOM    611  C4    A A  27     -21.390   4.399  15.611  1.00  0.00     0.167 A 
ATOM    612  C8    A A  27     -22.523   3.940  17.429  1.00  0.00     0.214 A 
ATOM    613  N3    A A  27     -20.684   5.013  14.645  1.00  0.00    -0.222 NA
ATOM    614  C5    A A  27     -21.781   3.072  15.637  1.00  0.00     0.149 A 
ATOM    615  C2    A A  27     -20.388   4.161  13.667  1.00  0.00     0.237 A 
ATOM    616  N1    A A  27     -20.695   2.862  13.553  1.00  0.00    -0.222 NA
ATOM    617  C6    A A  27     -21.405   2.275  14.541  1.00  0.00     0.155 A 
ATOM    618  N6    A A  27     -21.708   0.983  14.425  1.00  0.00    -0.382 N 
ATOM    619  H62   A A  27     -21.413   0.461  13.612  1.00  0.00     0.157 HD
ATOM    620  H61   A A  27     -22.239   0.526  15.154  1.00  0.00     0.157 HD
ATOM    621  N7    A A  27     -22.496   2.794  16.793  1.00  0.00    -0.236 NA
BRANCH 592 622
ATOM    622  O3'   G A  28     -24.925   9.633  11.071  1.00  0.00    -0.279 OA
BRANCH 622 623
ATOM    623  P     A A  29     -26.487   9.935  10.827  1.00  0.00     0.408 P 
ATOM    624  OP2   A A  29     -26.929   9.182   9.625  1.00  0.00    -0.624 OA
ATOM    625  OP1   A A  29     -27.182   9.723  12.122  1.00  0.00    -0.624 OA
BRANCH 623 626
ATOM    626  O5'   A A  29     -26.531  11.492  10.488  1.00  0.00    -0.287 OA
BRANCH 626 627
ATOM    627  C5'   A A  29     -25.397  12.325  10.721  1.00  0.00     0.216 C 
BRANCH 627 628
ATOM    628  C4'   A A  29     -25.196  12.532  12.206  1.00  0.00     0.180 C 
ATOM    629  C3'   A A  29     -25.456  13.941  12.720  1.00  0.00     0.198 C 
ATOM    630  O3'   A A  29     -26.843  14.173  12.950  1.00  0.00    -0.279 OA
ATOM    631  C2'   A A  29     -24.641  13.969  14.008  1.00  0.00     0.199 C 
ATOM    632  P     G A  30     -27.400  15.681  13.013  1.00  0.00     0.408 P 
ATOM    633  OP1   G A  30     -28.863  15.600  13.255  1.00  0.00    -0.624 OA
ATOM    634  O5'   G A  30     -26.717  16.294  14.317  1.00  0.00    -0.287 OA
ATOM    635  OP2   G A  30     -26.894  16.419  11.828  1.00  0.00    -0.624 OA
ATOM    636  C5'   G A  30     -26.999  15.765  15.612  1.00  0.00     0.216 C 
ATOM    637  C4'   G A  30     -26.444  16.675  16.682  1.00  0.00     0.180 C 
ATOM    638  C3'   G A  30     -26.945  18.120  16.633  1.00  0.00     0.198 C 
ATOM    639  O4'   G A  30     -24.998  16.749  16.525  1.00  0.00    -0.353 OA
ATOM    640  O3'   G A  30     -27.208  18.624  17.942  1.00  0.00    -0.279 OA
ATOM    641  C2'   G A  30     -25.803  18.868  15.951  1.00  0.00     0.199 C 
ATOM    642  P     G A  31     -28.573  18.226  18.696  1.00  0.00     0.408 P 
ATOM    643  OP1   G A  31     -29.518  17.702  17.677  1.00  0.00    -0.624 OA
ATOM    644  OP2   G A  31     -28.977  19.376  19.545  1.00  0.00    -0.624 OA
ATOM    645  O5'   G A  31     -28.155  17.016  19.646  1.00  0.00    -0.287 OA
ATOM    646  C5'   G A  31     -27.647  17.244  20.961  1.00  0.00     0.216 C 
ATOM    647  C4'   G A  31     -28.305  16.303  21.943  1.00  0.00     0.180 C 
ATOM    648  C3'   G A  31     -28.085  16.632  23.414  1.00  0.00     0.198 C 
ATOM    649  O4'   G A  31     -27.735  14.975  21.780  1.00  0.00    -0.353 OA
ATOM    650  O3'   G A  31     -29.035  17.581  23.891  1.00  0.00    -0.279 OA
ATOM    651  C2'   G A  31     -28.241  15.271  24.080  1.00  0.00     0.199 C 
ATOM    652  P     G A  32     -28.718  18.429  25.222  1.00  0.00     0.408 P 
ATOM    653  OP1   G A  32     -29.901  19.284  25.492  1.00  0.00    -0.624 OA
ATOM    654  O5'   G A  32     -28.630  17.327  26.371  1.00  0.00    -0.287 OA
ATOM    655  OP2   G A  32     -27.380  19.054  25.070  1.00  0.00    -0.624 OA
ATOM    656  C5'   G A  32     -29.777  16.573  26.758  1.00  0.00     0.216 C 
ATOM    657  C4'   G A  32     -29.581  15.995  28.141  1.00  0.00     0.180 C 
ATOM    658  C3'   G A  32     -28.795  16.865  29.110  1.00  0.00     0.198 C 
ATOM    659  O4'   G A  32     -28.796  14.779  28.040  1.00  0.00    -0.353 OA
ATOM    660  C2'   G A  32     -28.245  15.843  30.099  1.00  0.00     0.199 C 
ATOM    661  O3'   G A  32     -29.632  17.838  29.730  1.00  0.00    -0.279 OA
ATOM    662  O2'   G A  32     -29.227  15.460  31.045  1.00  0.00    -0.388 OA
ATOM    663  C1'   G A  32     -27.965  14.652  29.181  1.00  0.00     0.262 C 
ATOM    664 'HO2   G A  32     -29.227  16.126  31.734  1.00  0.00     0.210 HD
ATOM    665  N9    G A  32     -26.579  14.569  28.732  1.00  0.00    -0.293 N 
ATOM    666  C4    G A  32     -25.533  13.991  29.411  1.00  0.00     0.187 A 
ATOM    667  C8    G A  32     -26.058  15.047  27.555  1.00  0.00     0.214 A 
ATOM    668  N3    G A  32     -25.605  13.397  30.621  1.00  0.00    -0.044 NA
ATOM    669  C5    G A  32     -24.434  14.152  28.595  1.00  0.00     0.173 A 
ATOM    670  C2    G A  32     -24.431  12.935  31.013  1.00  0.00     0.703 A 
ATOM    671  N2    G A  32     -24.323  12.320  32.194  1.00  0.00    -0.233 N 
ATOM    672  N1    G A  32     -23.279  13.042  30.278  1.00  0.00    -0.153 N 
ATOM    673  H21   G A  32     -25.144  12.217  32.773  1.00  0.00     0.174 HD
ATOM    674  H22   G A  32     -23.433  11.963  32.507  1.00  0.00     0.174 HD
ATOM    675  C6    G A  32     -23.181  13.646  29.031  1.00  0.00     0.292 A 
ATOM    676  H1    G A  32     -22.433  12.653  30.667  1.00  0.00     0.187 HD
ATOM    677  O6    G A  32     -22.090  13.685  28.452  1.00  0.00    -0.265 OA
ATOM    678  N7    G A  32     -24.779  14.820  27.429  1.00  0.00    -0.234 NA
ATOM    679  P     T A  33     -28.974  19.030  30.586  1.00  0.00     0.408 P 
ATOM    680  OP1   T A  33     -30.034  20.045  30.813  1.00  0.00    -0.624 OA
ATOM    681  O5'   T A  33     -28.632  18.353  31.988  1.00  0.00    -0.287 OA
ATOM    682  OP2   T A  33     -27.702  19.433  29.933  1.00  0.00    -0.624 OA
ATOM    683  C5'   T A  33     -27.336  18.475  32.570  1.00  0.00     0.216 C 
ATOM    684  C4'   T A  33     -27.138  17.412  33.624  1.00  0.00     0.180 C 
ATOM    685  C3'   T A  33     -26.065  17.717  34.662  1.00  0.00     0.198 C 
ATOM    686  O4'   T A  33     -26.696  16.188  32.975  1.00  0.00    -0.353 OA
ATOM    687  O3'   T A  33     -26.596  18.454  35.761  1.00  0.00    -0.279 OA
ATOM    688  C2'   T A  33     -25.594  16.327  35.067  1.00  0.00     0.199 C 
ATOM    689  P     T A  34     -26.030  19.925  36.088  1.00  0.00     0.408 P 
ATOM    690  OP1   T A  34     -27.116  20.673  36.770  1.00  0.00    -0.624 OA
ATOM    691  O5'   T A  34     -24.868  19.664  37.147  1.00  0.00    -0.287 OA
ATOM    692  OP2   T A  34     -25.415  20.485  34.857  1.00  0.00    -0.624 OA
ATOM    693  C5'   T A  34     -25.155  19.126  38.436  1.00  0.00     0.216 C 
ATOM    694  C4'   T A  34     -24.002  18.275  38.916  1.00  0.00     0.180 C 
ATOM    695  O4'   T A  34     -23.711  17.265  37.912  1.00  0.00    -0.353 OA
ATOM    696  C3'   T A  34     -22.685  19.013  39.114  1.00  0.00     0.198 C 
ATOM    697  C1'   T A  34     -22.309  17.088  37.803  1.00  0.00     0.264 C 
ATOM    698  C2'   T A  34     -21.655  17.908  38.915  1.00  0.00     0.199 C 
ATOM    699  N1    T A  34     -21.894  17.489  36.451  1.00  0.00    -0.280 N 
ATOM    700  C6    T A  34     -22.711  18.256  35.652  1.00  0.00     0.104 A 
ATOM    701  C2    T A  34     -20.653  17.071  36.007  1.00  0.00     0.331 A 
ATOM    702  C5    T A  34     -22.357  18.634  34.420  1.00  0.00     0.092 A 
ATOM    703  C4    T A  34     -21.088  18.243  33.890  1.00  0.00     0.250 A 
ATOM    704  O4    T A  34     -20.651  18.531  32.777  1.00  0.00    -0.268 OA
ATOM    705  N3    T A  34     -20.323  17.480  34.740  1.00  0.00    -0.275 N 
ATOM    706  H3    T A  34     -19.419  17.190  34.398  1.00  0.00     0.173 HD
ATOM    707  O2    T A  34     -19.901  16.393  36.682  1.00  0.00    -0.246 OA
ATOM    708  C1'   T A  33     -25.652  15.596  33.727  1.00  0.00     0.264 C 
ATOM    709  O2'   T A  33     -26.506  15.715  35.959  1.00  0.00    -0.388 OA
ATOM    710  N1    T A  33     -24.409  15.684  32.945  1.00  0.00    -0.280 N 
ATOM    711  C6    T A  33     -24.378  16.310  31.718  1.00  0.00     0.104 A 
ATOM    712  C2    T A  33     -23.267  15.119  33.484  1.00  0.00     0.331 A 
ATOM    713  C5    T A  33     -23.260  16.404  30.992  1.00  0.00     0.092 A 
ATOM    714  C4    T A  33     -22.040  15.846  31.483  1.00  0.00     0.250 A 
ATOM    715  O4    T A  33     -20.953  15.859  30.905  1.00  0.00    -0.268 OA
ATOM    716  N3    T A  33     -22.142  15.238  32.712  1.00  0.00    -0.275 N 
ATOM    717  H3    T A  33     -21.295  14.841  33.090  1.00  0.00     0.173 HD
ATOM    718  O2    T A  33     -23.253  14.556  34.563  1.00  0.00    -0.246 OA
ATOM    719 'HO2   T A  33     -26.827  16.405  36.541  1.00  0.00     0.210 HD
ATOM    720  C1'   G A  31     -27.581  14.359  23.047  1.00  0.00     0.262 C 
ATOM    721  O2'   G A  31     -29.605  14.914  24.198  1.00  0.00    -0.388 OA
ATOM    722  N9    G A  31     -26.158  14.139  23.283  1.00  0.00    -0.293 N 
ATOM    723  C4    G A  31     -25.602  13.410  24.307  1.00  0.00     0.187 A 
ATOM    724  C8    G A  31     -25.109  14.618  22.536  1.00  0.00     0.214 A 
ATOM    725  N3    G A  31     -26.278  12.763  25.278  1.00  0.00    -0.044 NA
ATOM    726  C5    G A  31     -24.238  13.491  24.116  1.00  0.00     0.173 A 
ATOM    727  C2    G A  31     -25.467  12.150  26.121  1.00  0.00     0.703 A 
ATOM    728  N2    G A  31     -25.974  11.463  27.148  1.00  0.00    -0.233 N 
ATOM    729  N1    G A  31     -24.099  12.168  26.020  1.00  0.00    -0.153 N 
ATOM    730  H21   G A  31     -26.975  11.422  27.264  1.00  0.00     0.174 HD
ATOM    731  H22   G A  31     -25.366  10.992  27.800  1.00  0.00     0.174 HD
ATOM    732  C6    G A  31     -23.380  12.825  25.029  1.00  0.00     0.292 A 
ATOM    733  H1    G A  31     -23.565  11.670  26.714  1.00  0.00     0.187 HD
ATOM    734  O6    G A  31     -22.144  12.774  25.031  1.00  0.00    -0.265 OA
ATOM    735  N7    G A  31     -23.942  14.256  22.995  1.00  0.00    -0.234 NA
ATOM    736 'HO2   G A  31     -30.106  15.728  24.142  1.00  0.00     0.210 HD
ATOM    737  O2'   G A  30     -25.727  20.207  16.401  1.00  0.00    -0.388 OA
ATOM    738  C1'   G A  30     -24.599  18.100  16.481  1.00  0.00     0.262 C 
ATOM    739 'HO2   G A  30     -26.117  20.226  17.276  1.00  0.00     0.210 HD
ATOM    740  N9    G A  30     -23.400  18.205  15.656  1.00  0.00    -0.293 N 
ATOM    741  C8    G A  30     -23.251  17.808  14.349  1.00  0.00     0.214 A 
ATOM    742  C4    G A  30     -22.189  18.727  16.040  1.00  0.00     0.187 A 
ATOM    743  N7    G A  30     -22.057  18.034  13.875  1.00  0.00    -0.234 NA
ATOM    744  C5    G A  30     -21.374  18.615  14.934  1.00  0.00     0.173 A 
ATOM    745  C6    G A  30     -20.035  19.080  15.024  1.00  0.00     0.292 A 
ATOM    746  N1    G A  30     -19.757  19.598  16.284  1.00  0.00    -0.153 N 
ATOM    747  O6    G A  30     -19.157  19.072  14.156  1.00  0.00    -0.265 OA
ATOM    748  C2    G A  30     -20.648  19.661  17.324  1.00  0.00     0.703 A 
ATOM    749  H1    G A  30     -18.826  19.953  16.439  1.00  0.00     0.187 HD
ATOM    750  N2    G A  30     -20.191  20.193  18.460  1.00  0.00    -0.233 N 
ATOM    751  N3    G A  30     -21.895  19.233  17.256  1.00  0.00    -0.044 NA
ATOM    752  H21   G A  30     -20.810  20.260  19.255  1.00  0.00     0.174 HD
ATOM    753  H22   G A  30     -19.239  20.521  18.528  1.00  0.00     0.174 HD
ATOM    754  O2'   A A  29     -25.319  13.301  15.056  1.00  0.00    -0.388 OA
ATOM    755  C1'   A A  29     -23.420  13.138  13.611  1.00  0.00     0.262 C 
ATOM    756 'HO2   A A  29     -26.233  13.212  14.780  1.00  0.00     0.210 HD
ATOM    757  O4'   A A  29     -23.802  12.295  12.537  1.00  0.00    -0.353 OA
BRANCH 698 758
ATOM    758  O2'   T A  34     -21.542  17.098  40.071  1.00  0.00    -0.388 OA
ATOM    759 'HO2   T A  34     -20.606  16.969  40.228  1.00  0.00     0.210 HD
ENDBRANCH 698 758
BRANCH 696 760
ATOM    760  O3'   T A  34     -22.607  19.603  40.410  1.00  0.00    -0.279 OA
BRANCH 760 761
ATOM    761  P     C A  35     -23.550  19.064  41.598  1.00  0.00     0.408 P 
ATOM    762  OP1   C A  35     -24.755  19.931  41.630  1.00  0.00    -0.624 OA
ATOM    763  OP2   C A  35     -22.738  18.893  42.830  1.00  0.00    -0.624 OA
BRANCH 761 764
ATOM    764  O5'   C A  35     -23.999  17.616  41.105  1.00  0.00    -0.287 OA
BRANCH 764 765
ATOM    765  C5'   C A  35     -24.625  16.695  41.996  1.00  0.00     0.216 C 
BRANCH 765 766
ATOM    766  C4'   C A  35     -26.084  16.531  41.636  1.00  0.00     0.180 C 
ATOM    767  O4'   C A  35     -26.196  16.393  40.193  1.00  0.00    -0.353 OA
ATOM    768  C1'   C A  35     -27.144  15.387  39.878  1.00  0.00     0.264 C 
ATOM    769  N1    C A  35     -26.438  14.266  39.235  1.00  0.00    -0.278 N 
ATOM    770  C2'   C A  35     -27.851  15.006  41.177  1.00  0.00     0.199 C 
ATOM    771  C6    C A  35     -25.106  14.053  39.462  1.00  0.00     0.102 A 
ATOM    772  C2    C A  35     -27.152  13.418  38.384  1.00  0.00     0.352 A 
ATOM    773  C5    C A  35     -24.460  13.036  38.880  1.00  0.00     0.067 A 
ATOM    774  C4    C A  35     -25.213  12.188  38.016  1.00  0.00     0.128 A 
ATOM    775  N4    C A  35     -24.625  11.160  37.406  1.00  0.00    -0.384 N 
ATOM    776  N3    C A  35     -26.512  12.388  37.788  1.00  0.00    -0.177 NA
ATOM    777  H41   C A  35     -23.644  10.974  37.552  1.00  0.00     0.157 HD
ATOM    778  H42   C A  35     -25.171  10.569  36.796  1.00  0.00     0.157 HD
ATOM    779  O2    C A  35     -28.358  13.632  38.195  1.00  0.00    -0.244 OA
ATOM    780  C3'   C A  35     -26.759  15.288  42.202  1.00  0.00     0.198 C 
ATOM    781  O2'   C A  35     -28.961  15.866  41.360  1.00  0.00    -0.388 OA
ATOM    782  O3'   C A  35     -27.288  15.526  43.504  1.00  0.00    -0.279 OA
ATOM    783  P     A A  36     -26.882  14.558  44.722  1.00  0.00     0.408 P 
ATOM    784  OP2   A A  36     -25.428  14.721  44.977  1.00  0.00    -0.624 OA
ATOM    785  O5'   A A  36     -27.124  13.090  44.149  1.00  0.00    -0.287 OA
ATOM    786  OP1   A A  36     -27.851  14.804  45.820  1.00  0.00    -0.624 OA
ATOM    787  C5'   A A  36     -28.030  12.185  44.784  1.00  0.00     0.216 C 
ATOM    788  C4'   A A  36     -29.381  12.231  44.103  1.00  0.00     0.180 C 
ATOM    789  C3'   A A  36     -30.038  10.870  43.881  1.00  0.00     0.198 C 
ATOM    790  O4'   A A  36     -29.218  12.809  42.776  1.00  0.00    -0.353 OA
ATOM    791  O3'   A A  36     -30.927  10.539  44.945  1.00  0.00    -0.279 OA
ATOM    792  C2'   A A  36     -30.770  11.054  42.558  1.00  0.00     0.199 C 
ATOM    793  P     A A  37     -30.599   9.290  45.903  1.00  0.00     0.408 P 
ATOM    794  OP2   A A  37     -29.125   9.151  46.013  1.00  0.00    -0.624 OA
ATOM    795  OP1   A A  37     -31.411   9.461  47.136  1.00  0.00    -0.624 OA
ATOM    796  O5'   A A  37     -31.162   8.030  45.105  1.00  0.00    -0.287 OA
ATOM    797  O2'   A A  36     -31.988  11.753  42.736  1.00  0.00    -0.388 OA
ATOM    798  C1'   A A  36     -29.792  11.953  41.810  1.00  0.00     0.262 C 
ATOM    799 'HO2   A A  36     -32.181  11.729  43.674  1.00  0.00     0.210 HD
ATOM    800  N9    A A  36     -28.713  11.230  41.137  1.00  0.00    -0.294 N 
ATOM    801  C8    A A  36     -27.360  11.438  41.251  1.00  0.00     0.214 A 
ATOM    802  C4    A A  36     -28.858  10.188  40.253  1.00  0.00     0.167 A 
ATOM    803  N7    A A  36     -26.637  10.625  40.521  1.00  0.00    -0.236 NA
ATOM    804  C5    A A  36     -27.576   9.826  39.883  1.00  0.00     0.149 A 
ATOM    805  C6    A A  36     -27.452   8.764  38.972  1.00  0.00     0.155 A 
ATOM    806  N6    A A  36     -26.283   8.304  38.526  1.00  0.00    -0.382 N 
ATOM    807  N1    A A  36     -28.586   8.181  38.527  1.00  0.00    -0.222 NA
ATOM    808  H62   A A  36     -26.264   7.536  37.870  1.00  0.00     0.157 HD
ATOM    809  H61   A A  36     -25.423   8.726  38.846  1.00  0.00     0.157 HD
ATOM    810  C2    A A  36     -29.760   8.641  38.975  1.00  0.00     0.237 A 
ATOM    811  N3    A A  36     -30.007   9.630  39.831  1.00  0.00    -0.222 NA
ATOM    812 'HO2   C A  35     -29.279  15.717  42.251  1.00  0.00     0.210 HD
BRANCH 796 813
ATOM    813  C5'   A A  37     -32.503   7.580  45.295  1.00  0.00     0.216 C 
BRANCH 813 814
ATOM    814  C4'   A A  37     -32.573   6.074  45.170  1.00  0.00     0.180 C 
ATOM    815  O4'   A A  37     -32.779   5.716  43.780  1.00  0.00    -0.353 OA
ATOM    816  C1'   A A  37     -32.141   4.481  43.509  1.00  0.00     0.262 C 
ATOM    817  C2'   A A  37     -31.462   4.009  44.797  1.00  0.00     0.199 C 
ATOM    818  C3'   A A  37     -31.308   5.323  45.558  1.00  0.00     0.198 C 
BRANCH 816 819
ATOM    819  N9    A A  37     -31.208   4.676  42.399  1.00  0.00    -0.294 N 
ATOM    820  C8    A A  37     -30.903   5.842  41.743  1.00  0.00     0.214 A 
ATOM    821  N7    A A  37     -30.018   5.694  40.787  1.00  0.00    -0.236 NA
ATOM    822  C5    A A  37     -29.721   4.337  40.815  1.00  0.00     0.149 A 
ATOM    823  C6    A A  37     -28.851   3.542  40.049  1.00  0.00     0.155 A 
ATOM    824  C4    A A  37     -30.448   3.699  41.803  1.00  0.00     0.167 A 
ATOM    825  N6    A A  37     -28.085   4.016  39.067  1.00  0.00    -0.382 N 
ATOM    826  N1    A A  37     -28.792   2.224  40.333  1.00  0.00    -0.222 NA
ATOM    827  H61   A A  37     -28.113   5.000  38.840  1.00  0.00     0.157 HD
ATOM    828  H62   A A  37     -27.478   3.388  38.561  1.00  0.00     0.157 HD
ATOM    829  C2    A A  37     -29.559   1.746  41.322  1.00  0.00     0.237 A 
ATOM    830  N3    A A  37     -30.414   2.392  42.112  1.00  0.00    -0.222 NA
ENDBRANCH 816 819
BRANCH 817 831
ATOM    831  O2'   A A  37     -32.340   3.124  45.469  1.00  0.00    -0.388 OA
ATOM    832 'HO2   A A  37     -31.905   2.857  46.280  1.00  0.00     0.210 HD
ENDBRANCH 817 831
BRANCH 818 833
ATOM    833  O3'   A A  37     -31.228   5.135  46.970  1.00  0.00    -0.279 OA
BRANCH 833 834
ATOM    834  P     A A  38     -29.793   5.141  47.699  1.00  0.00     0.408 P 
ATOM    835  OP1   A A  38     -30.022   5.494  49.122  1.00  0.00    -0.624 OA
ATOM    836  OP2   A A  38     -28.863   5.961  46.880  1.00  0.00    -0.624 OA
BRANCH 834 837
ATOM    837  O5'   A A  38     -29.313   3.622  47.633  1.00  0.00    -0.287 OA
BRANCH 837 838
ATOM    838  C5'   A A  38     -28.092   3.209  48.249  1.00  0.00     0.216 C 
BRANCH 838 839
ATOM    839  C4'   A A  38     -28.339   2.023  49.154  1.00  0.00     0.180 C 
ATOM    840  C3'   A A  38     -27.155   1.071  49.308  1.00  0.00     0.198 C 
ATOM    841  C2'   A A  38     -27.826  -0.278  49.555  1.00  0.00     0.199 C 
ATOM    842  O2'   A A  38     -28.245  -0.438  50.896  1.00  0.00    -0.388 OA
ATOM    843  C1'   A A  38     -29.070  -0.158  48.675  1.00  0.00     0.262 C 
ATOM    844 'HO2   A A  38     -28.904   0.233  51.079  1.00  0.00     0.210 HD
ATOM    845  O4'   A A  38     -29.399   1.215  48.576  1.00  0.00    -0.353 OA
BRANCH 840 846
ATOM    846  O3'   A A  38     -26.244   1.424  50.361  1.00  0.00    -0.279 OA
ATOM    847  P     T A  39     -24.684   1.014  50.284  1.00  0.00     0.408 P 
ATOM    848  OP2   T A  39     -24.490  -0.168  51.162  1.00  0.00    -0.624 OA
ATOM    849  OP1   T A  39     -24.238   0.953  48.869  1.00  0.00    -0.624 OA
ATOM    850  O5'   T A  39     -23.935   2.250  50.954  1.00  0.00    -0.287 OA
ATOM    851  C5'   T A  39     -24.524   3.551  50.963  1.00  0.00     0.216 C 
ATOM    852  C4'   T A  39     -23.461   4.606  50.763  1.00  0.00     0.180 C 
ATOM    853  O4'   T A  39     -22.724   4.766  52.011  1.00  0.00    -0.353 OA
ATOM    854  C3'   T A  39     -22.409   4.286  49.703  1.00  0.00     0.198 C 
ATOM    855  C1'   T A  39     -21.355   4.503  51.790  1.00  0.00     0.264 C 
ATOM    856  C2'   T A  39     -21.283   3.662  50.520  1.00  0.00     0.199 C 
ATOM    857  N1    T A  39     -20.798   3.852  52.987  1.00  0.00    -0.280 N 
ATOM    858  O2'   T A  39     -20.020   3.870  49.912  1.00  0.00    -0.388 OA
ATOM    859 'HO2   T A  39     -20.144   3.770  48.968  1.00  0.00     0.210 HD
ATOM    860  C2    T A  39     -21.532   2.842  53.590  1.00  0.00     0.331 A 
ATOM    861  C6    T A  39     -19.578   4.239  53.492  1.00  0.00     0.104 A 
ATOM    862  N3    T A  39     -20.949   2.288  54.702  1.00  0.00    -0.275 N 
ATOM    863  O2    T A  39     -22.611   2.463  53.178  1.00  0.00    -0.246 OA
ATOM    864  H3    T A  39     -21.466   1.552  55.157  1.00  0.00     0.173 HD
ATOM    865  C4    T A  39     -19.739   2.627  55.259  1.00  0.00     0.250 A 
ATOM    866  O4    T A  39     -19.354   2.040  56.270  1.00  0.00    -0.268 OA
ATOM    867  C5    T A  39     -19.042   3.673  54.578  1.00  0.00     0.092 A 
ATOM    868  O3'   T A  39     -22.001   5.469  49.020  1.00  0.00    -0.279 OA
ATOM    869  P     C A  40     -21.546   5.393  47.478  1.00  0.00     0.408 P 
ATOM    870  OP2   C A  40     -22.392   6.331  46.695  1.00  0.00    -0.624 OA
ATOM    871  O5'   C A  40     -21.906   3.908  47.024  1.00  0.00    -0.287 OA
ATOM    872  OP1   C A  40     -20.068   5.534  47.446  1.00  0.00    -0.624 OA
ATOM    873  C5'   C A  40     -21.836   3.526  45.650  1.00  0.00     0.216 C 
ATOM    874  C4'   C A  40     -22.250   2.082  45.484  1.00  0.00     0.180 C 
ATOM    875  O4'   C A  40     -23.566   1.908  46.080  1.00  0.00    -0.353 OA
ATOM    876  C3'   C A  40     -22.383   1.623  44.033  1.00  0.00     0.198 C 
ATOM    877  C1'   C A  40     -24.457   1.376  45.123  1.00  0.00     0.264 C 
ATOM    878  N1    C A  40     -25.298   2.475  44.615  1.00  0.00    -0.278 N 
ATOM    879  C2'   C A  40     -23.592   0.693  44.067  1.00  0.00     0.199 C 
ATOM    880  C6    C A  40     -25.301   3.694  45.235  1.00  0.00     0.102 A 
ATOM    881  C2    C A  40     -26.098   2.256  43.488  1.00  0.00     0.352 A 
ATOM    882  C5    C A  40     -26.062   4.699  44.781  1.00  0.00     0.067 A 
ATOM    883  C4    C A  40     -26.866   4.447  43.633  1.00  0.00     0.128 A 
ATOM    884  N3    C A  40     -26.871   3.263  43.020  1.00  0.00    -0.177 NA
ATOM    885  N4    C A  40     -27.644   5.407  43.134  1.00  0.00    -0.384 N 
ATOM    886  H41   C A  40     -27.669   6.320  43.568  1.00  0.00     0.157 HD
ATOM    887  H42   C A  40     -28.210   5.216  42.320  1.00  0.00     0.157 HD
ATOM    888  O2    C A  40     -26.081   1.143  42.943  1.00  0.00    -0.244 OA
ATOM    889  O2'   C A  40     -23.238  -0.595  44.534  1.00  0.00    -0.388 OA
ATOM    890 'HO2   C A  40     -22.284  -0.654  44.489  1.00  0.00     0.210 HD
ATOM    891  O3'   C A  40     -21.204   0.954  43.589  1.00  0.00    -0.279 OA
ATOM    892  P     C A  41     -20.242   1.661  42.512  1.00  0.00     0.408 P 
ATOM    893  O5'   C A  41     -21.178   1.877  41.240  1.00  0.00    -0.287 OA
ATOM    894  OP2   C A  41     -19.862   2.998  43.034  1.00  0.00    -0.624 OA
ATOM    895  OP1   C A  41     -19.182   0.685  42.149  1.00  0.00    -0.624 OA
ATOM    896  C5'   C A  41     -21.714   0.764  40.524  1.00  0.00     0.216 C 
ATOM    897  C4'   C A  41     -22.422   1.242  39.279  1.00  0.00     0.180 C 
ATOM    898  O4'   C A  41     -23.668   1.888  39.666  1.00  0.00    -0.353 OA
ATOM    899  C3'   C A  41     -21.678   2.294  38.465  1.00  0.00     0.198 C 
ATOM    900  C1'   C A  41     -23.862   3.056  38.888  1.00  0.00     0.264 C 
ATOM    901  N1    C A  41     -23.766   4.229  39.773  1.00  0.00    -0.278 N 
ATOM    902  C2'   C A  41     -22.813   3.040  37.779  1.00  0.00     0.199 C 
ATOM    903  C2    C A  41     -24.191   5.470  39.294  1.00  0.00     0.352 A 
ATOM    904  C6    C A  41     -23.266   4.114  41.041  1.00  0.00     0.102 A 
ATOM    905  N3    C A  41     -24.101   6.555  40.094  1.00  0.00    -0.177 NA
ATOM    906  O2    C A  41     -24.640   5.546  38.143  1.00  0.00    -0.244 OA
ATOM    907  C4    C A  41     -23.611   6.433  41.329  1.00  0.00     0.128 A 
ATOM    908  N4    C A  41     -23.542   7.531  42.080  1.00  0.00    -0.384 N 
ATOM    909  C5    C A  41     -23.171   5.181  41.846  1.00  0.00     0.067 A 
ATOM    910  H41   C A  41     -23.179   7.483  43.022  1.00  0.00     0.157 HD
ATOM    911  H42   C A  41     -23.859   8.415  41.706  1.00  0.00     0.157 HD
ATOM    912  O2'   C A  41     -23.321   2.304  36.681  1.00  0.00    -0.388 OA
ATOM    913 'HO2   C A  41     -22.656   1.655  36.451  1.00  0.00     0.210 HD
ATOM    914  O3'   C A  41     -20.774   1.700  37.537  1.00  0.00    -0.279 OA
ATOM    915  P     C A  42     -19.516   2.542  36.997  1.00  0.00     0.408 P 
ATOM    916  OP2   C A  42     -18.834   3.166  38.159  1.00  0.00    -0.624 OA
ATOM    917  O5'   C A  42     -20.174   3.702  36.125  1.00  0.00    -0.287 OA
ATOM    918  OP1   C A  42     -18.748   1.655  36.086  1.00  0.00    -0.624 OA
ATOM    919  C5'   C A  42     -20.905   3.404  34.937  1.00  0.00     0.216 C 
ATOM    920  C4'   C A  42     -21.280   4.681  34.220  1.00  0.00     0.180 C 
ATOM    921  O4'   C A  42     -22.309   5.368  34.984  1.00  0.00    -0.353 OA
ATOM    922  C3'   C A  42     -20.164   5.706  34.083  1.00  0.00     0.198 C 
ATOM    923  C1'   C A  42     -22.102   6.768  34.912  1.00  0.00     0.264 C 
ATOM    924  C2'   C A  42     -20.933   7.016  33.959  1.00  0.00     0.199 C 
BRANCH 923 925
ATOM    925  N1    C A  42     -21.873   7.274  36.276  1.00  0.00    -0.278 N 
ATOM    926  C6    C A  42     -21.130   6.558  37.174  1.00  0.00     0.102 A 
ATOM    927  C5    C A  42     -20.925   7.011  38.417  1.00  0.00     0.067 A 
ATOM    928  C4    C A  42     -21.507   8.265  38.762  1.00  0.00     0.128 A 
ATOM    929  N3    C A  42     -22.228   8.972  37.892  1.00  0.00    -0.177 NA
ATOM    930  N4    C A  42     -21.341   8.768  39.984  1.00  0.00    -0.384 N 
ATOM    931  C2    C A  42     -22.428   8.502  36.642  1.00  0.00     0.352 A 
ATOM    932  O2    C A  42     -23.096   9.133  35.809  1.00  0.00    -0.244 OA
ATOM    933  H42   C A  42     -21.761   9.657  40.216  1.00  0.00     0.157 HD
ATOM    934  H41   C A  42     -20.802   8.265  40.674  1.00  0.00     0.157 HD
ENDBRANCH 923 925
BRANCH 924 935
ATOM    935  O2'   C A  42     -21.444   7.186  32.650  1.00  0.00    -0.388 OA
ATOM    936 'HO2   C A  42     -22.290   6.739  32.626  1.00  0.00     0.210 HD
ENDBRANCH 924 935
BRANCH 922 937
ATOM    937  O3'   C A  42     -19.350   5.443  32.942  1.00  0.00    -0.279 OA
BRANCH 937 938
ATOM    938  P     G A  43     -17.750   5.387  33.096  1.00  0.00     0.408 P 
ATOM    939  OP2   G A  43     -17.424   5.033  34.501  1.00  0.00    -0.624 OA
ATOM    940  OP1   G A  43     -17.230   4.546  31.988  1.00  0.00    -0.624 OA
BRANCH 938 941
ATOM    941  O5'   G A  43     -17.282   6.889  32.839  1.00  0.00    -0.287 OA
BRANCH 941 942
ATOM    942  C5'   G A  43     -16.760   7.289  31.573  1.00  0.00     0.216 C 
BRANCH 942 943
ATOM    943  C4'   G A  43     -15.787   8.433  31.750  1.00  0.00     0.180 C 
ATOM    944  O4'   G A  43     -16.536   9.674  31.832  1.00  0.00    -0.353 OA
ATOM    945  C1'   G A  43     -15.926  10.541  32.770  1.00  0.00     0.262 C 
ATOM    946  C2'   G A  43     -14.649   9.869  33.274  1.00  0.00     0.199 C 
ATOM    947  C3'   G A  43     -14.959   8.396  33.027  1.00  0.00     0.198 C 
ATOM    948  O2'   G A  43     -13.563  10.304  32.476  1.00  0.00    -0.388 OA
ATOM    949  O3'   G A  43     -13.772   7.622  32.861  1.00  0.00    -0.279 OA
ATOM    950  P     G A  44     -13.689   6.137  33.474  1.00  0.00     0.408 P 
ATOM    951  OP2   G A  44     -14.292   6.147  34.832  1.00  0.00    -0.624 OA
ATOM    952  O5'   G A  44     -12.124   5.871  33.628  1.00  0.00    -0.287 OA
ATOM    953  OP1   G A  44     -14.211   5.202  32.446  1.00  0.00    -0.624 OA
ATOM    954  C5'   G A  44     -11.168   6.743  33.025  1.00  0.00     0.216 C 
ATOM    955  C4'   G A  44      -9.798   6.509  33.619  1.00  0.00     0.180 C 
ATOM    956  C3'   G A  44      -9.182   5.145  33.309  1.00  0.00     0.198 C 
ATOM    957  O4'   G A  44      -9.902   6.585  35.070  1.00  0.00    -0.353 OA
ATOM    958  C2'   G A  44      -9.437   4.339  34.579  1.00  0.00     0.199 C 
ATOM    959  C1'   G A  44      -9.341   5.427  35.644  1.00  0.00     0.262 C 
ATOM    960  N9    G A  44     -10.058   5.131  36.881  1.00  0.00    -0.293 N 
ATOM    961  C4    G A  44     -11.005   4.151  37.069  1.00  0.00     0.187 A 
ATOM    962  C8    G A  44      -9.921   5.770  38.089  1.00  0.00     0.214 A 
ATOM    963  N3    G A  44     -11.445   3.282  36.133  1.00  0.00    -0.044 NA
ATOM    964  C5    G A  44     -11.384   4.257  38.391  1.00  0.00     0.173 A 
ATOM    965  C2    G A  44     -12.355   2.457  36.617  1.00  0.00     0.703 A 
ATOM    966  N1    G A  44     -12.801   2.478  37.913  1.00  0.00    -0.153 N 
ATOM    967  N2    G A  44     -12.896   1.531  35.822  1.00  0.00    -0.233 N 
ATOM    968  C6    G A  44     -12.364   3.361  38.893  1.00  0.00     0.292 A 
ATOM    969  H1    G A  44     -13.498   1.802  38.181  1.00  0.00     0.187 HD
ATOM    970  O6    G A  44     -12.836   3.293  40.035  1.00  0.00    -0.265 OA
ATOM    971  H22   G A  44     -13.591   0.892  36.175  1.00  0.00     0.174 HD
ATOM    972  H21   G A  44     -12.597   1.477  34.858  1.00  0.00     0.174 HD
ATOM    973  N7    G A  44     -10.693   5.284  39.021  1.00  0.00    -0.234 NA
ATOM    974 'HO2   G A  43     -13.048   9.525  32.263  1.00  0.00     0.210 HD
BRANCH 945 975
ATOM    975  N9    G A  43     -16.892  10.826  33.827  1.00  0.00    -0.293 N 
ATOM    976  C4    G A  43     -18.261  10.784  33.716  1.00  0.00     0.187 A 
ATOM    977  N3    G A  43     -18.956  10.468  32.604  1.00  0.00    -0.044 NA
ATOM    978  C5    G A  43     -18.740  11.126  34.962  1.00  0.00     0.173 A 
ATOM    979  C2    G A  43     -20.260  10.514  32.809  1.00  0.00     0.703 A 
ATOM    980  N2    G A  43     -21.098  10.231  31.809  1.00  0.00    -0.233 N 
ATOM    981  N1    G A  43     -20.838  10.842  34.008  1.00  0.00    -0.153 N 
ATOM    982  H22   G A  43     -22.096  10.250  31.951  1.00  0.00     0.174 HD
ATOM    983  H21   G A  43     -20.714   9.986  30.907  1.00  0.00     0.174 HD
ATOM    984  C6    G A  43     -20.144  11.169  35.166  1.00  0.00     0.292 A 
ATOM    985  H1    G A  43     -21.846  10.848  34.059  1.00  0.00     0.187 HD
ATOM    986  O6    G A  43     -20.766  11.447  36.197  1.00  0.00    -0.265 OA
ATOM    987  N7    G A  43     -17.693  11.379  35.841  1.00  0.00    -0.234 NA
ATOM    988  C8    G A  43     -16.621  11.191  35.123  1.00  0.00     0.214 A 
ENDBRANCH 945 975
BRANCH 956 989
ATOM    989  O3'   G A  44      -7.791   5.257  33.016  1.00  0.00    -0.279 OA
BRANCH 989 990
ATOM    990  P     A A  45      -7.218   4.686  31.625  1.00  0.00     0.408 P 
ATOM    991  O5'   A A  45      -7.639   3.150  31.635  1.00  0.00    -0.287 OA
ATOM    992  C5'   A A  45      -7.245   2.271  30.581  1.00  0.00     0.216 C 
ATOM    993  C4'   A A  45      -8.330   1.251  30.317  1.00  0.00     0.180 C 
ATOM    994  O4'   A A  45      -7.897  -0.033  30.848  1.00  0.00    -0.353 OA
ATOM    995  C3'   A A  45      -9.670   1.534  30.990  1.00  0.00     0.198 C 
ATOM    996  C1'   A A  45      -8.922  -0.588  31.650  1.00  0.00     0.262 C 
ATOM    997  C2'   A A  45     -10.207   0.136  31.262  1.00  0.00     0.199 C 
ATOM    998  N9    A A  45      -8.548  -0.421  33.054  1.00  0.00    -0.294 N 
ATOM    999  O2'   A A  45     -10.726  -0.457  30.086  1.00  0.00    -0.388 OA
ATOM   1000 'HO2   A A  45     -10.889   0.255  29.465  1.00  0.00     0.210 HD
ATOM   1001  C4    A A  45      -9.109  -1.058  34.136  1.00  0.00     0.167 A 
ATOM   1002  C8    A A  45      -7.575   0.400  33.567  1.00  0.00     0.214 A 
ATOM   1003  C5    A A  45      -8.435  -0.579  35.245  1.00  0.00     0.149 A 
ATOM   1004  N3    A A  45     -10.105  -1.960  34.126  1.00  0.00    -0.222 NA
ATOM   1005  N7    A A  45      -7.467   0.342  34.872  1.00  0.00    -0.236 NA
ATOM   1006  C6    A A  45      -8.827  -1.084  36.496  1.00  0.00     0.155 A 
ATOM   1007  N6    A A  45      -8.274  -0.710  37.650  1.00  0.00    -0.382 N 
ATOM   1008  N1    A A  45      -9.823  -1.995  36.522  1.00  0.00    -0.222 NA
ATOM   1009  H62   A A  45      -8.592  -1.105  38.525  1.00  0.00     0.157 HD
ATOM   1010  H61   A A  45      -7.530  -0.027  37.649  1.00  0.00     0.157 HD
ATOM   1011  C2    A A  45     -10.384  -2.364  35.363  1.00  0.00     0.237 A 
ATOM   1012  O3'   A A  45     -10.527   2.296  30.143  1.00  0.00    -0.279 OA
ATOM   1013  OP1   A A  45      -5.735   4.756  31.685  1.00  0.00    -0.624 OA
ATOM   1014  OP2   A A  45      -7.938   5.361  30.516  1.00  0.00    -0.624 OA
BRANCH 1012 1015
ATOM   1015  P     C A  46     -11.529   3.377  30.787  1.00  0.00     0.408 P 
ATOM   1016  OP1   C A  46     -10.991   4.725  30.474  1.00  0.00    -0.624 OA
ATOM   1017  OP2   C A  46     -11.790   3.001  32.199  1.00  0.00    -0.624 OA
BRANCH 1015 1018
ATOM   1018  O5'   C A  46     -12.881   3.181  29.965  1.00  0.00    -0.287 OA
BRANCH 1018 1019
ATOM   1019  C5'   C A  46     -13.582   4.303  29.432  1.00  0.00     0.216 C 
BRANCH 1019 1020
ATOM   1020  C4'   C A  46     -13.704   4.177  27.931  1.00  0.00     0.180 C 
ATOM   1021  O4'   C A  46     -12.924   5.228  27.296  1.00  0.00    -0.353 OA
ATOM   1022  C1'   C A  46     -12.340   4.731  26.102  1.00  0.00     0.264 C 
ATOM   1023  C2'   C A  46     -12.870   3.313  25.894  1.00  0.00     0.199 C 
ATOM   1024  C3'   C A  46     -13.148   2.894  27.330  1.00  0.00     0.198 C 
BRANCH 1022 1025
ATOM   1025  N1    C A  46     -10.874   4.801  26.233  1.00  0.00    -0.278 N 
ATOM   1026  C6    C A  46     -10.215   4.039  27.158  1.00  0.00     0.102 A 
ATOM   1027  C5    C A  46      -8.883   4.104  27.285  1.00  0.00     0.067 A 
ATOM   1028  C4    C A  46      -8.185   4.992  26.417  1.00  0.00     0.128 A 
ATOM   1029  N3    C A  46      -8.818   5.736  25.508  1.00  0.00    -0.177 NA
ATOM   1030  N4    C A  46      -6.860   5.103  26.495  1.00  0.00    -0.384 N 
ATOM   1031  C2    C A  46     -10.162   5.663  25.394  1.00  0.00     0.352 A 
ATOM   1032  O2    C A  46     -10.783   6.342  24.563  1.00  0.00    -0.244 OA
ATOM   1033  H42   C A  46      -6.372   5.732  25.872  1.00  0.00     0.157 HD
ATOM   1034  H41   C A  46      -6.343   4.558  27.170  1.00  0.00     0.157 HD
ENDBRANCH 1022 1025
BRANCH 1023 1035
ATOM   1035  O2'   C A  46     -14.066   3.381  25.141  1.00  0.00    -0.388 OA
ATOM   1036 'HO2   C A  46     -14.072   4.237  24.711  1.00  0.00     0.210 HD
ENDBRANCH 1023 1035
BRANCH 1024 1037
ATOM   1037  O3'   C A  46     -14.078   1.819  27.420  1.00  0.00    -0.279 OA
BRANCH 1037 1038
ATOM   1038  P     G A  47     -13.549   0.328  27.707  1.00  0.00     0.408 P 
ATOM   1039  OP2   G A  47     -14.432  -0.633  26.998  1.00  0.00    -0.624 OA
ATOM   1040  OP1   G A  47     -12.089   0.320  27.435  1.00  0.00    -0.624 OA
BRANCH 1038 1041
ATOM   1041  O5'   G A  47     -13.761   0.138  29.275  1.00  0.00    -0.287 OA
BRANCH 1041 1042
ATOM   1042  C5'   G A  47     -14.479  -0.984  29.785  1.00  0.00     0.216 C 
BRANCH 1042 1043
ATOM   1043  C4'   G A  47     -13.663  -1.693  30.841  1.00  0.00     0.180 C 
ATOM   1044  O4'   G A  47     -13.627  -0.891  32.051  1.00  0.00    -0.353 OA
ATOM   1045  C1'   G A  47     -13.524  -1.745  33.179  1.00  0.00     0.262 C 
ATOM   1046  C2'   G A  47     -13.507  -3.185  32.665  1.00  0.00     0.199 C 
ATOM   1047  N9    G A  47     -14.640  -1.468  34.079  1.00  0.00    -0.293 N 
ATOM   1048  O2'   G A  47     -12.160  -3.586  32.489  1.00  0.00    -0.388 OA
ATOM   1049  C3'   G A  47     -14.214  -3.025  31.326  1.00  0.00     0.198 C 
ATOM   1050 'HO2   G A  47     -12.102  -3.977  31.617  1.00  0.00     0.210 HD
ATOM   1051  O3'   G A  47     -13.924  -4.087  30.421  1.00  0.00    -0.279 OA
ATOM   1052  P     A A  48     -14.816  -5.425  30.451  1.00  0.00     0.408 P 
ATOM   1053  OP1   A A  48     -14.268  -6.342  29.418  1.00  0.00    -0.624 OA
ATOM   1054  O5'   A A  48     -14.516  -6.059  31.882  1.00  0.00    -0.287 OA
ATOM   1055  OP2   A A  48     -16.249  -5.040  30.400  1.00  0.00    -0.624 OA
ATOM   1056  C5'   A A  48     -13.204  -6.497  32.227  1.00  0.00     0.216 C 
ATOM   1057  C4'   A A  48     -13.151  -6.903  33.683  1.00  0.00     0.180 C 
ATOM   1058  O4'   A A  48     -13.515  -5.778  34.523  1.00  0.00    -0.353 OA
ATOM   1059  C3'   A A  48     -14.135  -7.978  34.113  1.00  0.00     0.198 C 
ATOM   1060  C1'   A A  48     -14.066  -6.263  35.739  1.00  0.00     0.262 C 
ATOM   1061  N9    A A  48     -15.355  -5.611  35.962  1.00  0.00    -0.294 N 
ATOM   1062  C2'   A A  48     -14.167  -7.786  35.625  1.00  0.00     0.199 C 
ATOM   1063  C8    A A  48     -16.064  -4.808  35.103  1.00  0.00     0.214 A 
ATOM   1064  C4    A A  48     -16.112  -5.693  37.108  1.00  0.00     0.167 A 
ATOM   1065  N7    A A  48     -17.197  -4.373  35.599  1.00  0.00    -0.236 NA
ATOM   1066  C5    A A  48     -17.239  -4.929  36.871  1.00  0.00     0.149 A 
ATOM   1067  C6    A A  48     -18.187  -4.850  37.908  1.00  0.00     0.155 A 
ATOM   1068  N6    A A  48     -19.319  -4.150  37.827  1.00  0.00    -0.382 N 
ATOM   1069  N1    A A  48     -17.927  -5.524  39.049  1.00  0.00    -0.222 NA
ATOM   1070  H61   A A  48     -19.532  -3.638  36.983  1.00  0.00     0.157 HD
ATOM   1071  H62   A A  48     -19.964  -4.133  38.605  1.00  0.00     0.157 HD
ATOM   1072  C2    A A  48     -16.788  -6.225  39.133  1.00  0.00     0.237 A 
ATOM   1073  N3    A A  48     -15.821  -6.373  38.229  1.00  0.00    -0.222 NA
ATOM   1074  O2'   A A  48     -13.028  -8.360  36.238  1.00  0.00    -0.388 OA
ATOM   1075 'HO2   A A  48     -12.667  -8.988  35.613  1.00  0.00     0.210 HD
ATOM   1076  O3'   A A  48     -13.701  -9.281  33.735  1.00  0.00    -0.279 OA
ATOM   1077  P     G A  49     -14.770 -10.480  33.629  1.00  0.00     0.408 P 
ATOM   1078  OP1   G A  49     -14.091 -11.615  32.953  1.00  0.00    -0.624 OA
ATOM   1079  OP2   G A  49     -16.035  -9.942  33.067  1.00  0.00    -0.624 OA
ATOM   1080  O5'   G A  49     -15.037 -10.895  35.144  1.00  0.00    -0.287 OA
ATOM   1081  C5'   G A  49     -13.978 -11.383  35.966  1.00  0.00     0.216 C 
ATOM   1082  C4'   G A  49     -14.503 -11.752  37.334  1.00  0.00     0.180 C 
ATOM   1083  O4'   G A  49     -14.872 -10.545  38.052  1.00  0.00    -0.353 OA
ATOM   1084  C3'   G A  49     -15.777 -12.582  37.359  1.00  0.00     0.198 C 
ATOM   1085  C1'   G A  49     -15.966 -10.823  38.913  1.00  0.00     0.262 C 
ATOM   1086  C2'   G A  49     -16.301 -12.308  38.762  1.00  0.00     0.199 C 
ATOM   1087  N9    G A  49     -17.073  -9.942  38.558  1.00  0.00    -0.293 N 
ATOM   1088  O2'   G A  49     -15.574 -13.041  39.729  1.00  0.00    -0.388 OA
ATOM   1089 'HO2   G A  49     -15.134 -13.750  39.261  1.00  0.00     0.210 HD
ATOM   1090  C8    G A  49     -17.243  -9.250  37.384  1.00  0.00     0.214 A 
ATOM   1091  C4    G A  49     -18.161  -9.646  39.341  1.00  0.00     0.187 A 
ATOM   1092  N7    G A  49     -18.341  -8.545  37.356  1.00  0.00    -0.234 NA
ATOM   1093  C5    G A  49     -18.933  -8.787  38.588  1.00  0.00     0.173 A 
ATOM   1094  C6    G A  49     -20.147  -8.299  39.139  1.00  0.00     0.292 A 
ATOM   1095  O6    G A  49     -20.970  -7.527  38.632  1.00  0.00    -0.265 OA
ATOM   1096  N1    G A  49     -20.366  -8.802  40.416  1.00  0.00    -0.153 N 
ATOM   1097  H1    G A  49     -21.208  -8.514  40.889  1.00  0.00     0.187 HD
ATOM   1098  C2    G A  49     -19.527  -9.660  41.080  1.00  0.00     0.703 A 
ATOM   1099  N3    G A  49     -18.395 -10.119  40.582  1.00  0.00    -0.044 NA
ATOM   1100  N2    G A  49     -19.913 -10.031  42.302  1.00  0.00    -0.233 N 
ATOM   1101  H21   G A  49     -19.332 -10.662  42.835  1.00  0.00     0.174 HD
ATOM   1102  H22   G A  49     -20.781  -9.687  42.690  1.00  0.00     0.174 HD
ATOM   1103  O3'   G A  49     -15.522 -13.964  37.130  1.00  0.00    -0.279 OA
ATOM   1104  P     C A  50     -16.690 -14.905  36.549  1.00  0.00     0.408 P 
ATOM   1105  OP1   C A  50     -16.165 -16.294  36.517  1.00  0.00    -0.624 OA
ATOM   1106  OP2   C A  50     -17.213 -14.290  35.302  1.00  0.00    -0.624 OA
ATOM   1107  O5'   C A  50     -17.835 -14.831  37.655  1.00  0.00    -0.287 OA
ATOM   1108  C5'   C A  50     -17.636 -15.388  38.954  1.00  0.00     0.216 C 
ATOM   1109  C4'   C A  50     -18.776 -15.006  39.869  1.00  0.00     0.180 C 
ATOM   1110  O4'   C A  50     -18.904 -13.562  39.918  1.00  0.00    -0.353 OA
ATOM   1111  C3'   C A  50     -20.162 -15.457  39.435  1.00  0.00     0.198 C 
ATOM   1112  C1'   C A  50     -20.254 -13.218  40.179  1.00  0.00     0.264 C 
ATOM   1113  N1    C A  50     -20.715 -12.281  39.140  1.00  0.00    -0.278 N 
ATOM   1114  C2'   C A  50     -21.062 -14.517  40.226  1.00  0.00     0.199 C 
ATOM   1115  C6    C A  50     -19.985 -12.076  38.002  1.00  0.00     0.102 A 
ATOM   1116  C2    C A  50     -21.920 -11.603  39.334  1.00  0.00     0.352 A 
ATOM   1117  C5    C A  50     -20.403 -11.224  37.057  1.00  0.00     0.067 A 
ATOM   1118  C4    C A  50     -21.636 -10.547  37.283  1.00  0.00     0.128 A 
ATOM   1119  N4    C A  50     -22.107  -9.688  36.381  1.00  0.00    -0.384 N 
ATOM   1120  N3    C A  50     -22.357 -10.743  38.389  1.00  0.00    -0.177 NA
ATOM   1121  H42   C A  50     -22.982  -9.211  36.556  1.00  0.00     0.157 HD
ATOM   1122  H41   C A  50     -21.593  -9.509  35.530  1.00  0.00     0.157 HD
ATOM   1123  O2    C A  50     -22.564 -11.806  40.373  1.00  0.00    -0.244 OA
ATOM   1124  O2'   C A  50     -21.174 -14.930  41.575  1.00  0.00    -0.388 OA
ATOM   1125 'HO2   C A  50     -20.821 -15.820  41.620  1.00  0.00     0.210 HD
ATOM   1126  O3'   C A  50     -20.399 -16.828  39.743  1.00  0.00    -0.279 OA
ATOM   1127  P     C A  51     -21.544 -17.638  38.952  1.00  0.00     0.408 P 
ATOM   1128  OP1   C A  51     -21.510 -19.041  39.438  1.00  0.00    -0.624 OA
ATOM   1129  OP2   C A  51     -21.397 -17.360  37.500  1.00  0.00    -0.624 OA
ATOM   1130  O5'   C A  51     -22.903 -16.971  39.449  1.00  0.00    -0.287 OA
ATOM   1131  C5'   C A  51     -23.278 -17.007  40.825  1.00  0.00     0.216 C 
ATOM   1132  C4'   C A  51     -24.630 -16.359  41.018  1.00  0.00     0.180 C 
ATOM   1133  O4'   C A  51     -24.508 -14.926  40.815  1.00  0.00    -0.353 OA
ATOM   1134  C3'   C A  51     -25.709 -16.773  40.029  1.00  0.00     0.198 C 
ATOM   1135  C1'   C A  51     -25.716 -14.421  40.269  1.00  0.00     0.264 C 
ATOM   1136  N1    C A  51     -25.405 -13.729  39.007  1.00  0.00    -0.278 N 
ATOM   1137  C2'   C A  51     -26.679 -15.598  40.100  1.00  0.00     0.199 C 
ATOM   1138  C6    C A  51     -24.269 -14.024  38.306  1.00  0.00     0.102 A 
ATOM   1139  C2    C A  51     -26.292 -12.760  38.535  1.00  0.00     0.352 A 
ATOM   1140  C5    C A  51     -23.979 -13.390  37.162  1.00  0.00     0.067 A 
ATOM   1141  C4    C A  51     -24.901 -12.403  36.707  1.00  0.00     0.128 A 
ATOM   1142  N4    C A  51     -24.667 -11.735  35.579  1.00  0.00    -0.384 N 
ATOM   1143  N3    C A  51     -26.014 -12.113  37.382  1.00  0.00    -0.177 NA
ATOM   1144  H41   C A  51     -23.837 -11.920  35.036  1.00  0.00     0.157 HD
ATOM   1145  H42   C A  51     -25.329 -11.035  35.274  1.00  0.00     0.157 HD
ATOM   1146  O2    C A  51     -27.318 -12.515  39.186  1.00  0.00    -0.244 OA
ATOM   1147  O2'   C A  51     -27.497 -15.681  41.251  1.00  0.00    -0.388 OA
ATOM   1148 'HO2   C A  51     -27.199 -16.442  41.749  1.00  0.00     0.210 HD
ATOM   1149  O3'   C A  51     -26.321 -18.006  40.399  1.00  0.00    -0.279 OA
ATOM   1150  P     C A  52     -27.097 -18.878  39.293  1.00  0.00     0.408 P 
ATOM   1151  OP1   C A  52     -27.425 -20.188  39.908  1.00  0.00    -0.624 OA
ATOM   1152  OP2   C A  52     -26.321 -18.834  38.027  1.00  0.00    -0.624 OA
ATOM   1153  O5'   C A  52     -28.461 -18.086  39.062  1.00  0.00    -0.287 OA
ATOM   1154  C5'   C A  52     -29.356 -17.830  40.144  1.00  0.00     0.216 C 
ATOM   1155  C4'   C A  52     -30.531 -17.009  39.667  1.00  0.00     0.180 C 
ATOM   1156  O4'   C A  52     -30.097 -15.639  39.464  1.00  0.00    -0.353 OA
ATOM   1157  C3'   C A  52     -31.118 -17.423  38.325  1.00  0.00     0.182 C 
ATOM   1158  C1'   C A  52     -30.780 -15.081  38.355  1.00  0.00     0.264 C 
ATOM   1159  N1    C A  52     -29.780 -14.657  37.362  1.00  0.00    -0.278 N 
ATOM   1160  C2'   C A  52     -31.762 -16.131  37.832  1.00  0.00     0.198 C 
ATOM   1161  C6    C A  52     -28.670 -15.416  37.116  1.00  0.00     0.102 A 
ATOM   1162  C2    C A  52     -29.982 -13.459  36.672  1.00  0.00     0.352 A 
ATOM   1163  C5    C A  52     -27.755 -15.032  36.216  1.00  0.00     0.067 A 
ATOM   1164  C4    C A  52     -27.985 -13.805  35.530  1.00  0.00     0.128 A 
ATOM   1165  N4    C A  52     -27.111 -13.368  34.624  1.00  0.00    -0.384 N 
ATOM   1166  N3    C A  52     -29.066 -13.058  35.761  1.00  0.00    -0.177 NA
ATOM   1167  H41   C A  52     -26.281 -13.902  34.418  1.00  0.00     0.157 HD
ATOM   1168  H42   C A  52     -27.288 -12.494  34.149  1.00  0.00     0.157 HD
ATOM   1169  O2    C A  52     -30.998 -12.793  36.910  1.00  0.00    -0.244 OA
ATOM   1170  O2'   C A  52     -33.021 -15.920  38.444  1.00  0.00    -0.388 OA
ATOM   1171 'HO2   C A  52     -33.385 -16.784  38.642  1.00  0.00     0.210 HD
ATOM   1172  O3'   C A  52     -32.064 -18.490  38.454  1.00  0.00    -0.390 OA
ATOM   1173 'HO3   C A  52     -31.652 -19.170  38.992  1.00  0.00     0.210 HD
ATOM   1174  C4    G A  47     -14.738  -1.850  35.394  1.00  0.00     0.187 A 
ATOM   1175  C8    G A  47     -15.797  -0.788  33.787  1.00  0.00     0.214 A 
ATOM   1176  N3    G A  47     -13.814  -2.546  36.088  1.00  0.00    -0.044 NA
ATOM   1177  C5    G A  47     -15.961  -1.377  35.824  1.00  0.00     0.173 A 
ATOM   1178  C2    G A  47     -14.196  -2.769  37.332  1.00  0.00     0.703 A 
ATOM   1179  N2    G A  47     -13.397  -3.449  38.157  1.00  0.00    -0.233 N 
ATOM   1180  N1    G A  47     -15.388  -2.343  37.858  1.00  0.00    -0.153 N 
ATOM   1181  H21   G A  47     -12.507  -3.786  37.822  1.00  0.00     0.174 HD
ATOM   1182  H22   G A  47     -13.685  -3.630  39.110  1.00  0.00     0.174 HD
ATOM   1183  C6    G A  47     -16.356  -1.624  37.166  1.00  0.00     0.292 A 
ATOM   1184  H1    G A  47     -15.583  -2.566  38.822  1.00  0.00     0.187 HD
ATOM   1185  O6    G A  47     -17.399  -1.289  37.737  1.00  0.00    -0.265 OA
ATOM   1186  N7    G A  47     -16.616  -0.706  34.800  1.00  0.00    -0.234 NA
ENDBRANCH 1042 1043
ENDBRANCH 1041 1042
ENDBRANCH 1038 1041
ENDBRANCH 1037 1038
ENDBRANCH 1024 1037
ENDBRANCH 1019 1020
ENDBRANCH 1018 1019
ENDBRANCH 1015 1018
ENDBRANCH 1012 1015
ENDBRANCH 989 990
ENDBRANCH 956 989
BRANCH 958 1187
ATOM   1187  O2'   G A  44      -8.405   3.395  34.801  1.00  0.00    -0.388 OA
ATOM   1188 'HO2   G A  44      -8.821   2.620  35.180  1.00  0.00     0.210 HD
ENDBRANCH 958 1187
ENDBRANCH 942 943
ENDBRANCH 941 942
ENDBRANCH 938 941
ENDBRANCH 937 938
ENDBRANCH 922 937
ENDBRANCH 840 846
BRANCH 843 1189
ATOM   1189  N9    A A  38     -28.885  -0.685  47.323  1.00  0.00    -0.294 N 
ATOM   1190  C4    A A  38     -29.735  -0.508  46.258  1.00  0.00     0.167 A 
ATOM   1191  N3    A A  38     -30.891   0.177  46.245  1.00  0.00    -0.222 NA
ATOM   1192  C5    A A  38     -29.158  -1.181  45.198  1.00  0.00     0.149 A 
ATOM   1193  C2    A A  38     -31.448   0.135  45.036  1.00  0.00     0.237 A 
ATOM   1194  N1    A A  38     -31.012  -0.468  43.925  1.00  0.00    -0.222 NA
ATOM   1195  C6    A A  38     -29.847  -1.148  43.972  1.00  0.00     0.155 A 
ATOM   1196  N6    A A  38     -29.416  -1.750  42.863  1.00  0.00    -0.382 N 
ATOM   1197  H62   A A  38     -29.965  -1.687  42.018  1.00  0.00     0.157 HD
ATOM   1198  H61   A A  38     -28.548  -2.264  42.874  1.00  0.00     0.157 HD
ATOM   1199  N7    A A  38     -27.963  -1.773  45.584  1.00  0.00    -0.236 NA
ATOM   1200  C8    A A  38     -27.848  -1.450  46.850  1.00  0.00     0.214 A 
ENDBRANCH 843 1189
ENDBRANCH 838 839
ENDBRANCH 837 838
ENDBRANCH 834 837
ENDBRANCH 833 834
ENDBRANCH 818 833
ENDBRANCH 813 814
ENDBRANCH 796 813
ENDBRANCH 765 766
ENDBRANCH 764 765
ENDBRANCH 761 764
ENDBRANCH 760 761
ENDBRANCH 696 760
BRANCH 755 1201
ATOM   1201  N9    A A  29     -22.278  13.944  13.181  1.00  0.00    -0.294 N 
ATOM   1202  C8    A A  29     -22.267  14.981  12.280  1.00  0.00     0.214 A 
ATOM   1203  N7    A A  29     -21.082  15.510  12.097  1.00  0.00    -0.236 NA
ATOM   1204  C5    A A  29     -20.257  14.774  12.937  1.00  0.00     0.149 A 
ATOM   1205  C4    A A  29     -20.980  13.808  13.611  1.00  0.00     0.167 A 
ATOM   1206  C6    A A  29     -18.878  14.842  13.207  1.00  0.00     0.155 A 
ATOM   1207  N3    A A  29     -20.506  12.920  14.502  1.00  0.00    -0.222 NA
ATOM   1208  C2    A A  29     -19.197  13.083  14.676  1.00  0.00     0.237 A 
ATOM   1209  N1    A A  29     -18.369  13.966  14.101  1.00  0.00    -0.222 NA
ATOM   1210  N6    A A  29     -18.053  15.717  12.632  1.00  0.00    -0.382 N 
ATOM   1211  H61   A A  29     -18.414  16.379  11.960  1.00  0.00     0.157 HD
ATOM   1212  H62   A A  29     -17.071  15.725  12.872  1.00  0.00     0.157 HD
ENDBRANCH 755 1201
ENDBRANCH 627 628
ENDBRANCH 626 627
ENDBRANCH 623 626
ENDBRANCH 622 623
ENDBRANCH 592 622
BRANCH 594 1213
ATOM   1213  O2'   G A  28     -22.550   8.409  10.479  1.00  0.00    -0.388 OA
ATOM   1214 'HO2   G A  28     -22.498   8.054   9.591  1.00  0.00     0.210 HD
ENDBRANCH 594 1213
BRANCH 604 1215
ATOM   1215  N2    G A  28     -21.880   3.154   8.847  1.00  0.00    -0.233 N 
ATOM   1216  H21   G A  28     -22.440   3.211   8.009  1.00  0.00     0.174 HD
ATOM   1217  H22   G A  28     -20.889   2.965   8.784  1.00  0.00     0.174 HD
ENDBRANCH 604 1215
ENDBRANCH 552 553
ENDBRANCH 549 552
ENDBRANCH 548 549
ENDBRANCH 544 548
BRANCH 545 1218
ATOM   1218  O2'   C A  25     -25.145  -2.368  21.377  1.00  0.00    -0.388 OA
ATOM   1219 'HO2   C A  25     -24.421  -1.750  21.269  1.00  0.00     0.210 HD
ENDBRANCH 545 1218
BRANCH 546 1220
ATOM   1220  N1    C A  25     -28.015  -3.188  19.255  1.00  0.00    -0.278 N 
ATOM   1221  C2    C A  25     -28.205  -4.484  18.773  1.00  0.00     0.352 A 
ATOM   1222  N3    C A  25     -28.862  -4.666  17.605  1.00  0.00    -0.177 NA
ATOM   1223  O2    C A  25     -27.765  -5.439  19.426  1.00  0.00    -0.244 OA
ATOM   1224  C4    C A  25     -29.326  -3.613  16.932  1.00  0.00     0.128 A 
ATOM   1225  C5    C A  25     -29.152  -2.280  17.403  1.00  0.00     0.067 A 
ATOM   1226  N4    C A  25     -29.968  -3.842  15.788  1.00  0.00    -0.384 N 
ATOM   1227  C6    C A  25     -28.495  -2.116  18.557  1.00  0.00     0.102 A 
ATOM   1228  H42   C A  25     -30.086  -4.790  15.459  1.00  0.00     0.157 HD
ATOM   1229  H41   C A  25     -30.335  -3.072  15.248  1.00  0.00     0.157 HD
ENDBRANCH 546 1220
ENDBRANCH 513 543
ENDBRANCH 367 368
ENDBRANCH 364 367
ENDBRANCH 363 364
ENDBRANCH 360 363
ENDBRANCH 346 347
ENDBRANCH 345 346
ENDBRANCH 342 345
ENDBRANCH 341 342
ENDBRANCH 317 341
ENDBRANCH 251 252
ENDBRANCH 250 251
ENDBRANCH 247 250
ENDBRANCH 246 247
ENDBRANCH 223 246
ENDBRANCH 206 207
ENDBRANCH 205 206
ENDBRANCH 202 205
ENDBRANCH 201 202
ENDBRANCH 179 201
BRANCH 197 1230
ATOM   1230  N9    G A   9     -30.665   8.225  27.718  1.00  0.00    -0.293 N 
ATOM   1231  C4    G A   9     -30.038   7.078  27.294  1.00  0.00     0.187 A 
ATOM   1232  N3    G A   9     -28.783   6.995  26.806  1.00  0.00    -0.044 NA
ATOM   1233  C5    G A   9     -30.959   6.068  27.477  1.00  0.00     0.173 A 
ATOM   1234  C2    G A   9     -28.462   5.757  26.480  1.00  0.00     0.703 A 
ATOM   1235  N1    G A   9     -29.303   4.683  26.621  1.00  0.00    -0.153 N 
ATOM   1236  C6    G A   9     -30.598   4.742  27.123  1.00  0.00     0.292 A 
ATOM   1237  H1    G A   9     -28.957   3.779  26.341  1.00  0.00     0.187 HD
ATOM   1238  O6    G A   9     -31.270   3.707  27.212  1.00  0.00    -0.265 OA
ATOM   1239  N7    G A   9     -32.141   6.569  28.006  1.00  0.00    -0.234 NA
ATOM   1240  C8    G A   9     -31.919   7.850  28.130  1.00  0.00     0.214 A 
BRANCH 1234 1241
ATOM   1241  N2    G A   9     -27.253   5.496  25.979  1.00  0.00    -0.233 N 
ATOM   1242  H21   G A   9     -26.464   5.416  26.603  1.00  0.00     0.174 HD
ATOM   1243  H22   G A   9     -27.128   5.385  24.981  1.00  0.00     0.174 HD
ENDBRANCH 1234 1241
ENDBRANCH 197 1230
ENDBRANCH 165 166
ENDBRANCH 162 165
ENDBRANCH 137 162
ENDBRANCH 113 117
BRANCH 114 1244
ATOM   1244  O2'   G A   6     -30.412   0.736  34.156  1.00  0.00    -0.388 OA
ATOM   1245 'HO2   G A   6     -30.131   0.098  33.500  1.00  0.00     0.210 HD
ENDBRANCH 114 1244
BRANCH 115 1246
ATOM   1246  N9    G A   6     -29.762   0.050  37.671  1.00  0.00    -0.293 N 
ATOM   1247  C8    G A   6     -30.539  -0.551  38.632  1.00  0.00     0.214 A 
ATOM   1248  N7    G A   6     -29.844  -1.196  39.528  1.00  0.00    -0.234 NA
ATOM   1249  C5    G A   6     -28.525  -1.014  39.132  1.00  0.00     0.173 A 
ATOM   1250  C4    G A   6     -28.458  -0.249  37.987  1.00  0.00     0.187 A 
ATOM   1251  C6    G A   6     -27.316  -1.482  39.712  1.00  0.00     0.292 A 
ATOM   1252  N3    G A   6     -27.365   0.142  37.297  1.00  0.00    -0.044 NA
ATOM   1253  C2    G A   6     -26.250  -0.302  37.849  1.00  0.00     0.703 A 
ATOM   1254  N2    G A   6     -25.071  -0.009  37.294  1.00  0.00    -0.233 N 
ATOM   1255  N1    G A   6     -26.207  -1.067  38.987  1.00  0.00    -0.153 N 
ATOM   1256  H22   G A   6     -24.214  -0.346  37.711  1.00  0.00     0.174 HD
ATOM   1257  H21   G A   6     -25.042   0.551  36.454  1.00  0.00     0.174 HD
ATOM   1258  H1    G A   6     -25.300  -1.351  39.324  1.00  0.00     0.187 HD
ATOM   1259  O6    G A   6     -27.164  -2.174  40.725  1.00  0.00    -0.265 OA
ENDBRANCH 115 1246
ENDBRANCH 111 112
ENDBRANCH 110 111
ENDBRANCH 107 110
ENDBRANCH 106 107
ENDBRANCH 102 106
BRANCH 103 1260
ATOM   1260  O2'   C A   5     -34.881   4.138  41.557  1.00  0.00    -0.388 OA
ATOM   1261 'HO2   C A   5     -35.063   4.525  42.415  1.00  0.00     0.210 HD
ENDBRANCH 103 1260
BRANCH 104 1262
ATOM   1262  N1    C A   5     -38.481   3.865  41.590  1.00  0.00    -0.278 N 
ATOM   1263  C2    C A   5     -38.647   3.672  42.963  1.00  0.00     0.352 A 
ATOM   1264  O2    C A   5     -37.726   3.987  43.729  1.00  0.00    -0.244 OA
ATOM   1265  N3    C A   5     -39.803   3.147  43.424  1.00  0.00    -0.177 NA
ATOM   1266  C4    C A   5     -40.774   2.823  42.569  1.00  0.00     0.128 A 
ATOM   1267  N4    C A   5     -41.896   2.310  43.072  1.00  0.00    -0.384 N 
ATOM   1268  C5    C A   5     -40.636   3.009  41.163  1.00  0.00     0.067 A 
ATOM   1269  H42   C A   5     -41.983   2.176  44.070  1.00  0.00     0.157 HD
ATOM   1270  H41   C A   5     -42.657   2.050  42.463  1.00  0.00     0.157 HD
ATOM   1271  C6    C A   5     -39.482   3.527  40.721  1.00  0.00     0.102 A 
ENDBRANCH 104 1262
ENDBRANCH 100 101
ENDBRANCH  99 100
ENDBRANCH  96  99
ENDBRANCH  95  96
ENDBRANCH  67  95
ENDBRANCH  24  27
ENDBRANCH  23  24
ENDBRANCH  22  23
BRANCH  21 1272
ATOM   1272  O2'   G A   1     -39.453   9.962  49.678  1.00  0.00    -0.388 OA
ATOM   1273 'HO2   G A   1     -38.555   9.653  49.799  1.00  0.00     0.210 HD
ENDBRANCH  21 1272
TORSDOF 402
ENDMDL
MODEL 2
REMARK VINA RESULT:      -2.3      4.300     11.010
REMARK WARNING: 32 MAX_TORS EXCEEDED!!!
REMARK  101 active torsions:
REMARK  status: ('A' for Active; 'I' for Inactive)
REMARK       I    between atoms: O5'_2  and  C5'_3 
REMARK       I    between atoms: C5'_3  and  C4'_4 
REMARK       I    between atoms: C1'_6  and  N9_7 
REMARK       I    between atoms: C2_10  and  N2_11 
REMARK    1  A    between atoms: C2'_21  and  O2'_22 
REMARK    2  A    between atoms: C3'_24  and  O3'_25 
REMARK    3  A    between atoms: O3'_25  and  P_26 
REMARK    4  A    between atoms: P_26  and  O5'_29 
REMARK       I    between atoms: O5'_29  and  C5'_30 
REMARK       I    between atoms: C5'_30  and  C4'_31 
REMARK       I    between atoms: C1'_33  and  N9_34 
REMARK       I    between atoms: C2_37  and  N2_38 
REMARK       I    between atoms: C2'_48  and  O2'_49 
REMARK       I    between atoms: C3'_51  and  O3'_52 
REMARK       I    between atoms: O3'_52  and  P_53 
REMARK       I    between atoms: P_53  and  O5'_56 
REMARK       I    between atoms: O5'_56  and  C5'_57 
REMARK       I    between atoms: C5'_57  and  C4'_58 
REMARK       I    between atoms: C1'_60  and  N1_61 
REMARK       I    between atoms: C4_66  and  N4_67 
REMARK       I    between atoms: C2'_71  and  O2'_72 
REMARK       I    between atoms: C3'_74  and  O3'_75 
REMARK       I    between atoms: O3'_75  and  P_76 
REMARK       I    between atoms: P_76  and  O5'_79 
REMARK       I    between atoms: O5'_79  and  C5'_80 
REMARK       I    between atoms: C5'_80  and  C4'_81 
REMARK       I    between atoms: C1'_83  and  N1_84 
REMARK       I    between atoms: C2'_93  and  O2'_94 
REMARK    5  A    between atoms: C3'_96  and  O3'_97 
REMARK    6  A    between atoms: O3'_97  and  P_98 
REMARK    7  A    between atoms: P_98  and  O5'_101 
REMARK    8  A    between atoms: O5'_101  and  C5'_102 
REMARK    9  A    between atoms: C5'_102  and  C4'_103 
REMARK   10  A    between atoms: C1'_105  and  N1_106 
REMARK       I    between atoms: C4_111  and  N4_112 
REMARK   11  A    between atoms: C2'_116  and  O2'_117 
REMARK   12  A    between atoms: C3'_119  and  O3'_120 
REMARK   13  A    between atoms: O3'_120  and  P_121 
REMARK   14  A    between atoms: P_121  and  O5'_124 
REMARK   15  A    between atoms: O5'_124  and  C5'_125 
REMARK   16  A    between atoms: C5'_125  and  C4'_126 
REMARK   17  A    between atoms: C1'_128  and  N9_129 
REMARK       I    between atoms: C2_132  and  N2_133 
REMARK   18  A    between atoms: C2'_143  and  O2'_144 
REMARK   19  A    between atoms: C3'_146  and  O3'_147 
REMARK       I    between atoms: O3'_147  and  P_148 
REMARK       I    between atoms: P_148  and  O5'_151 
REMARK       I    between atoms: O5'_151  and  C5'_152 
REMARK       I    between atoms: C5'_152  and  C4'_153 
REMARK       I    between atoms: C1'_155  and  N1_156 
REMARK       I    between atoms: C2'_165  and  O2'_166 
REMARK       I    between atoms: C3'_168  and  O3'_169 
REMARK       I    between atoms: O3'_169  and  P_170 
REMARK       I    between atoms: P_170  and  O5'_173 
REMARK       I    between atoms: O5'_173  and  C5'_174 
REMARK       I    between atoms: C5'_174  and  C4'_175 
REMARK       I    between atoms: C1'_177  and  N1_178 
REMARK       I    between atoms: C2'_187  and  O2'_188 
REMARK       I    between atoms: C3'_190  and  O3'_191 
REMARK   20  A    between atoms: O3'_191  and  P_192 
REMARK   21  A    between atoms: P_192  and  O5'_195 
REMARK   22  A    between atoms: O5'_195  and  C5'_196 
REMARK       I    between atoms: C5'_196  and  C4'_197 
REMARK   23  A    between atoms: C1'_199  and  N9_200 
REMARK   24  A    between atoms: C2_203  and  N2_204 
REMARK       I    between atoms: C2'_214  and  O2'_215 
REMARK       I    between atoms: C3'_217  and  O3'_218 
REMARK       I    between atoms: O3'_218  and  P_219 
REMARK       I    between atoms: P_219  and  O5'_222 
REMARK       I    between atoms: O5'_222  and  C5'_223 
REMARK       I    between atoms: C5'_223  and  C4'_224 
REMARK       I    between atoms: C1'_226  and  N9_227 
REMARK       I    between atoms: C2_230  and  N2_231 
REMARK   25  A    between atoms: C2'_241  and  O2'_242 
REMARK   26  A    between atoms: C3'_244  and  O3'_245 
REMARK   27  A    between atoms: O3'_245  and  P_246 
REMARK   28  A    between atoms: P_246  and  O5'_249 
REMARK   29  A    between atoms: O5'_249  and  C5'_250 
REMARK   30  A    between atoms: C5'_250  and  C4'_251 
REMARK       I    between atoms: C1'_253  and  N1_254 
REMARK       I    between atoms: C2'_263  and  O2'_264 
REMARK       I    between atoms: C3'_266  and  O3'_267 
REMARK       I    between atoms: O3'_267  and  P_268 
REMARK       I    between atoms: P_268  and  O5'_271 
REMARK       I    between atoms: O5'_271  and  C5'_272 
REMARK       I    between atoms: C5'_272  and  C4'_273 
REMARK       I    between atoms: C1'_275  and  N1_276 
REMARK       I    between atoms: C4_281  and  N4_282 
REMARK   31  A    between atoms: C2'_286  and  O2'_287 
REMARK   32  A    between atoms: C3'_289  and  O3'_290 
REMARK   33  A    between atoms: O3'_290  and  P_291 
REMARK   34  A    between atoms: P_291  and  O5'_294 
REMARK   35  A    between atoms: O5'_294  and  C5'_295 
REMARK   36  A    between atoms: C5'_295  and  C4'_296 
REMARK   37  A    between atoms: C1'_298  and  N1_299 
REMARK       I    between atoms: C2'_308  and  O2'_309 
REMARK       I    between atoms: C3'_311  and  O3'_312 
REMARK       I    between atoms: O3'_312  and  P_313 
REMARK       I    between atoms: P_313  and  O5'_316 
REMARK       I    between atoms: O5'_316  and  C5'_317 
REMARK       I    between atoms: C5'_317  and  C4'_318 
REMARK       I    between atoms: C1'_320  and  N1_321 
REMARK       I    between atoms: C4_326  and  N4_327 
REMARK       I    between atoms: C2'_331  and  O2'_332 
REMARK       I    between atoms: C3'_334  and  O3'_335 
REMARK       I    between atoms: O3'_335  and  P_336 
REMARK       I    between atoms: P_336  and  O5'_339 
REMARK       I    between atoms: O5'_339  and  C5'_340 
REMARK       I    between atoms: C5'_340  and  C4'_341 
REMARK       I    between atoms: C1'_343  and  N9_344 
REMARK       I    between atoms: C2_347  and  N2_348 
REMARK       I    between atoms: C2'_358  and  O2'_359 
REMARK       I    between atoms: C3'_361  and  O3'_362 
REMARK       I    between atoms: O3'_362  and  P_363 
REMARK       I    between atoms: P_363  and  O5'_366 
REMARK       I    between atoms: O5'_366  and  C5'_367 
REMARK       I    between atoms: C5'_367  and  C4'_368 
REMARK       I    between atoms: C1'_370  and  N1_371 
REMARK       I    between atoms: C4_376  and  N4_377 
REMARK   38  A    between atoms: C2'_381  and  O2'_382 
REMARK   39  A    between atoms: C3'_384  and  O3'_385 
REMARK   40  A    between atoms: O3'_385  and  P_386 
REMARK   41  A    between atoms: P_386  and  O5'_389 
REMARK   42  A    between atoms: O5'_389  and  C5'_390 
REMARK   43  A    between atoms: C5'_390  and  C4'_391 
REMARK       I    between atoms: C1'_393  and  N1_394 
REMARK       I    between atoms: C2'_403  and  O2'_404 
REMARK   44  A    between atoms: C3'_406  and  O3'_407 
REMARK   45  A    between atoms: O3'_407  and  P_408 
REMARK   46  A    between atoms: P_408  and  O5'_411 
REMARK   47  A    between atoms: O5'_411  and  C5'_412 
REMARK       I    between atoms: C5'_412  and  C4'_413 
REMARK       I    between atoms: C1'_415  and  N1_416 
REMARK       I    between atoms: C2'_425  and  O2'_426 
REMARK       I    between atoms: C3'_428  and  O3'_429 
REMARK       I    between atoms: O3'_429  and  P_430 
REMARK       I    between atoms: P_430  and  O5'_433 
REMARK       I    between atoms: O5'_433  and  C5'_434 
REMARK       I    between atoms: C5'_434  and  C4'_435 
REMARK       I    between atoms: C1'_437  and  N1_438 
REMARK       I    between atoms: C2'_447  and  O2'_448 
REMARK       I    between atoms: C3'_450  and  O3'_451 
REMARK       I    between atoms: O3'_451  and  P_452 
REMARK       I    between atoms: P_452  and  O5'_455 
REMARK       I    between atoms: O5'_455  and  C5'_456 
REMARK       I    between atoms: C5'_456  and  C4'_457 
REMARK       I    between atoms: C1'_459  and  N9_460 
REMARK       I    between atoms: C2_463  and  N2_464 
REMARK       I    between atoms: C2'_474  and  O2'_475 
REMARK       I    between atoms: C3'_477  and  O3'_478 
REMARK       I    between atoms: O3'_478  and  P_479 
REMARK       I    between atoms: P_479  and  O5'_482 
REMARK       I    between atoms: O5'_482  and  C5'_483 
REMARK       I    between atoms: C5'_483  and  C4'_484 
REMARK       I    between atoms: C1'_486  and  N9_487 
REMARK       I    between atoms: C2_490  and  N2_491 
REMARK       I    between atoms: C2'_501  and  O2'_502 
REMARK       I    between atoms: C3'_504  and  O3'_505 
REMARK       I    between atoms: O3'_505  and  P_506 
REMARK       I    between atoms: P_506  and  O5'_509 
REMARK       I    between atoms: O5'_509  and  C5'_510 
REMARK       I    between atoms: C5'_510  and  C4'_511 
REMARK       I    between atoms: C1'_513  and  N9_514 
REMARK       I    between atoms: C2_517  and  N2_518 
REMARK       I    between atoms: C2'_528  and  O2'_529 
REMARK       I    between atoms: C3'_531  and  O3'_532 
REMARK       I    between atoms: O3'_532  and  P_533 
REMARK       I    between atoms: P_533  and  O5'_536 
REMARK       I    between atoms: O5'_536  and  C5'_537 
REMARK       I    between atoms: C5'_537  and  C4'_538 
REMARK       I    between atoms: C1'_540  and  N1_541 
REMARK       I    between atoms: C2'_550  and  O2'_551 
REMARK       I    between atoms: C3'_553  and  O3'_554 
REMARK       I    between atoms: O3'_554  and  P_555 
REMARK       I    between atoms: P_555  and  O5'_558 
REMARK       I    between atoms: O5'_558  and  C5'_559 
REMARK       I    between atoms: C5'_559  and  C4'_560 
REMARK       I    between atoms: C1'_562  and  N9_563 
REMARK       I    between atoms: C2_566  and  N2_567 
REMARK       I    between atoms: C2'_577  and  O2'_578 
REMARK       I    between atoms: C3'_580  and  O3'_581 
REMARK       I    between atoms: O3'_581  and  P_582 
REMARK       I    between atoms: P_582  and  O5'_585 
REMARK       I    between atoms: O5'_585  and  C5'_586 
REMARK   48  A    between atoms: C5'_586  and  C4'_587 
REMARK   49  A    between atoms: C1'_589  and  N1_590 
REMARK       I    between atoms: C4_595  and  N4_596 
REMARK   50  A    between atoms: C2'_600  and  O2'_601 
REMARK   51  A    between atoms: C3'_603  and  O3'_604 
REMARK   52  A    between atoms: O3'_604  and  P_605 
REMARK   53  A    between atoms: P_605  and  O5'_608 
REMARK   54  A    between atoms: O5'_608  and  C5'_609 
REMARK       I    between atoms: C5'_609  and  C4'_610 
REMARK       I    between atoms: C1'_612  and  N9_613 
REMARK       I    between atoms: C2_616  and  N2_617 
REMARK       I    between atoms: C2'_627  and  O2'_628 
REMARK       I    between atoms: C3'_630  and  O3'_631 
REMARK       I    between atoms: O3'_631  and  P_632 
REMARK       I    between atoms: P_632  and  O5'_635 
REMARK       I    between atoms: O5'_635  and  C5'_636 
REMARK       I    between atoms: C5'_636  and  C4'_637 
REMARK       I    between atoms: C1'_639  and  N9_640 
REMARK       I    between atoms: C6_645  and  N6_646 
REMARK       I    between atoms: C2'_652  and  O2'_653 
REMARK       I    between atoms: C3'_655  and  O3'_656 
REMARK       I    between atoms: O3'_656  and  P_657 
REMARK       I    between atoms: P_657  and  O5'_660 
REMARK       I    between atoms: O5'_660  and  C5'_661 
REMARK       I    between atoms: C5'_661  and  C4'_662 
REMARK       I    between atoms: C1'_664  and  N9_665 
REMARK   55  A    between atoms: C2_668  and  N2_669 
REMARK   56  A    between atoms: C2'_679  and  O2'_680 
REMARK   57  A    between atoms: C3'_682  and  O3'_683 
REMARK   58  A    between atoms: O3'_683  and  P_684 
REMARK   59  A    between atoms: P_684  and  O5'_687 
REMARK   60  A    between atoms: O5'_687  and  C5'_688 
REMARK   61  A    between atoms: C5'_688  and  C4'_689 
REMARK   62  A    between atoms: C1'_691  and  N9_692 
REMARK       I    between atoms: C6_697  and  N6_698 
REMARK       I    between atoms: C2'_704  and  O2'_705 
REMARK       I    between atoms: C3'_707  and  O3'_708 
REMARK       I    between atoms: O3'_708  and  P_709 
REMARK       I    between atoms: P_709  and  O5'_712 
REMARK       I    between atoms: O5'_712  and  C5'_713 
REMARK       I    between atoms: C5'_713  and  C4'_714 
REMARK       I    between atoms: C1'_716  and  N9_717 
REMARK       I    between atoms: C2_720  and  N2_721 
REMARK       I    between atoms: C2'_731  and  O2'_732 
REMARK       I    between atoms: C3'_734  and  O3'_735 
REMARK       I    between atoms: O3'_735  and  P_736 
REMARK       I    between atoms: P_736  and  O5'_739 
REMARK       I    between atoms: O5'_739  and  C5'_740 
REMARK       I    between atoms: C5'_740  and  C4'_741 
REMARK       I    between atoms: C1'_743  and  N9_744 
REMARK       I    between atoms: C2_747  and  N2_748 
REMARK       I    between atoms: C2'_758  and  O2'_759 
REMARK       I    between atoms: C3'_761  and  O3'_762 
REMARK       I    between atoms: O3'_762  and  P_763 
REMARK       I    between atoms: P_763  and  O5'_766 
REMARK       I    between atoms: O5'_766  and  C5'_767 
REMARK       I    between atoms: C5'_767  and  C4'_768 
REMARK       I    between atoms: C1'_770  and  N9_771 
REMARK       I    between atoms: C2_774  and  N2_775 
REMARK       I    between atoms: C2'_785  and  O2'_786 
REMARK       I    between atoms: C3'_788  and  O3'_789 
REMARK       I    between atoms: O3'_789  and  P_790 
REMARK       I    between atoms: P_790  and  O5'_793 
REMARK       I    between atoms: O5'_793  and  C5'_794 
REMARK       I    between atoms: C5'_794  and  C4'_795 
REMARK       I    between atoms: C1'_797  and  N1_798 
REMARK       I    between atoms: C2'_807  and  O2'_808 
REMARK       I    between atoms: C3'_810  and  O3'_811 
REMARK       I    between atoms: O3'_811  and  P_812 
REMARK       I    between atoms: P_812  and  O5'_815 
REMARK       I    between atoms: O5'_815  and  C5'_816 
REMARK       I    between atoms: C5'_816  and  C4'_817 
REMARK       I    between atoms: C1'_819  and  N1_820 
REMARK   63  A    between atoms: C2'_829  and  O2'_830 
REMARK   64  A    between atoms: C3'_832  and  O3'_833 
REMARK   65  A    between atoms: O3'_833  and  P_834 
REMARK   66  A    between atoms: P_834  and  O5'_837 
REMARK   67  A    between atoms: O5'_837  and  C5'_838 
REMARK   68  A    between atoms: C5'_838  and  C4'_839 
REMARK       I    between atoms: C1'_841  and  N1_842 
REMARK       I    between atoms: C4_847  and  N4_848 
REMARK       I    between atoms: C2'_852  and  O2'_853 
REMARK       I    between atoms: C3'_855  and  O3'_856 
REMARK       I    between atoms: O3'_856  and  P_857 
REMARK       I    between atoms: P_857  and  O5'_860 
REMARK       I    between atoms: O5'_860  and  C5'_861 
REMARK       I    between atoms: C5'_861  and  C4'_862 
REMARK       I    between atoms: C1'_864  and  N9_865 
REMARK       I    between atoms: C6_870  and  N6_871 
REMARK       I    between atoms: C2'_877  and  O2'_878 
REMARK       I    between atoms: C3'_880  and  O3'_881 
REMARK       I    between atoms: O3'_881  and  P_882 
REMARK       I    between atoms: P_882  and  O5'_885 
REMARK   69  A    between atoms: O5'_885  and  C5'_886 
REMARK   70  A    between atoms: C5'_886  and  C4'_887 
REMARK   71  A    between atoms: C1'_889  and  N9_890 
REMARK       I    between atoms: C6_895  and  N6_896 
REMARK   72  A    between atoms: C2'_902  and  O2'_903 
REMARK   73  A    between atoms: C3'_905  and  O3'_906 
REMARK   74  A    between atoms: O3'_906  and  P_907 
REMARK   75  A    between atoms: P_907  and  O5'_910 
REMARK   76  A    between atoms: O5'_910  and  C5'_911 
REMARK   77  A    between atoms: C5'_911  and  C4'_912 
REMARK   78  A    between atoms: C1'_914  and  N9_915 
REMARK       I    between atoms: C6_920  and  N6_921 
REMARK       I    between atoms: C2'_927  and  O2'_928 
REMARK   79  A    between atoms: C3'_930  and  O3'_931 
REMARK       I    between atoms: O3'_931  and  P_932 
REMARK       I    between atoms: P_932  and  O5'_935 
REMARK       I    between atoms: O5'_935  and  C5'_936 
REMARK       I    between atoms: C5'_936  and  C4'_937 
REMARK       I    between atoms: C1'_939  and  N1_940 
REMARK       I    between atoms: C2'_949  and  O2'_950 
REMARK       I    between atoms: C3'_952  and  O3'_953 
REMARK       I    between atoms: O3'_953  and  P_954 
REMARK       I    between atoms: P_954  and  O5'_957 
REMARK       I    between atoms: O5'_957  and  C5'_958 
REMARK       I    between atoms: C5'_958  and  C4'_959 
REMARK       I    between atoms: C1'_961  and  N1_962 
REMARK       I    between atoms: C4_967  and  N4_968 
REMARK       I    between atoms: C2'_972  and  O2'_973 
REMARK       I    between atoms: C3'_975  and  O3'_976 
REMARK       I    between atoms: O3'_976  and  P_977 
REMARK       I    between atoms: P_977  and  O5'_980 
REMARK       I    between atoms: O5'_980  and  C5'_981 
REMARK       I    between atoms: C5'_981  and  C4'_982 
REMARK       I    between atoms: C1'_984  and  N1_985 
REMARK       I    between atoms: C4_990  and  N4_991 
REMARK       I    between atoms: C2'_995  and  O2'_996 
REMARK       I    between atoms: C3'_998  and  O3'_999 
REMARK       I    between atoms: O3'_999  and  P_1000 
REMARK       I    between atoms: P_1000  and  O5'_1003 
REMARK       I    between atoms: O5'_1003  and  C5'_1004 
REMARK       I    between atoms: C5'_1004  and  C4'_1005 
REMARK   80  A    between atoms: C1'_1007  and  N1_1008 
REMARK       I    between atoms: C4_1013  and  N4_1014 
REMARK   81  A    between atoms: C2'_1018  and  O2'_1019 
REMARK   82  A    between atoms: C3'_1021  and  O3'_1022 
REMARK   83  A    between atoms: O3'_1022  and  P_1023 
REMARK   84  A    between atoms: P_1023  and  O5'_1026 
REMARK   85  A    between atoms: O5'_1026  and  C5'_1027 
REMARK   86  A    between atoms: C5'_1027  and  C4'_1028 
REMARK   87  A    between atoms: C1'_1030  and  N9_1031 
REMARK       I    between atoms: C2_1034  and  N2_1035 
REMARK       I    between atoms: C2'_1045  and  O2'_1046 
REMARK       I    between atoms: C3'_1048  and  O3'_1049 
REMARK       I    between atoms: O3'_1049  and  P_1050 
REMARK       I    between atoms: P_1050  and  O5'_1053 
REMARK       I    between atoms: O5'_1053  and  C5'_1054 
REMARK       I    between atoms: C5'_1054  and  C4'_1055 
REMARK       I    between atoms: C1'_1057  and  N9_1058 
REMARK       I    between atoms: C2_1061  and  N2_1062 
REMARK   88  A    between atoms: C2'_1072  and  O2'_1073 
REMARK   89  A    between atoms: C3'_1075  and  O3'_1076 
REMARK   90  A    between atoms: O3'_1076  and  P_1077 
REMARK       I    between atoms: P_1077  and  O5'_1080 
REMARK       I    between atoms: O5'_1080  and  C5'_1081 
REMARK       I    between atoms: C5'_1081  and  C4'_1082 
REMARK       I    between atoms: C1'_1084  and  N9_1085 
REMARK       I    between atoms: C6_1090  and  N6_1091 
REMARK       I    between atoms: C2'_1097  and  O2'_1098 
REMARK       I    between atoms: C3'_1100  and  O3'_1101 
REMARK   91  A    between atoms: O3'_1101  and  P_1102 
REMARK   92  A    between atoms: P_1102  and  O5'_1105 
REMARK   93  A    between atoms: O5'_1105  and  C5'_1106 
REMARK   94  A    between atoms: C5'_1106  and  C4'_1107 
REMARK   95  A    between atoms: C1'_1109  and  N1_1110 
REMARK       I    between atoms: C4_1115  and  N4_1116 
REMARK   96  A    between atoms: C2'_1120  and  O2'_1121 
REMARK   97  A    between atoms: C3'_1123  and  O3'_1124 
REMARK   98  A    between atoms: O3'_1124  and  P_1125 
REMARK   99  A    between atoms: P_1125  and  O5'_1128 
REMARK  100  A    between atoms: O5'_1128  and  C5'_1129 
REMARK  101  A    between atoms: C5'_1129  and  C4'_1130 
REMARK       I    between atoms: C1'_1132  and  N9_1133 
REMARK       I    between atoms: C2_1136  and  N2_1137 
REMARK       I    between atoms: C2'_1147  and  O2'_1148 
REMARK       I    between atoms: C3'_1150  and  O3'_1151 
REMARK       I    between atoms: O3'_1151  and  P_1152 
REMARK       I    between atoms: P_1152  and  O5'_1155 
REMARK       I    between atoms: O5'_1155  and  C5'_1156 
REMARK       I    between atoms: C5'_1156  and  C4'_1157 
REMARK       I    between atoms: C1'_1159  and  N9_1160 
REMARK       I    between atoms: C6_1165  and  N6_1166 
REMARK       I    between atoms: C2'_1172  and  O2'_1173 
REMARK       I    between atoms: C3'_1175  and  O3'_1176 
REMARK       I    between atoms: O3'_1176  and  P_1177 
REMARK       I    between atoms: P_1177  and  O5'_1180 
REMARK       I    between atoms: O5'_1180  and  C5'_1181 
REMARK       I    between atoms: C5'_1181  and  C4'_1182 
REMARK       I    between atoms: C1'_1184  and  N9_1185 
REMARK       I    between atoms: C2_1188  and  N2_1189 
REMARK       I    between atoms: C2'_1199  and  O2'_1200 
REMARK       I    between atoms: C3'_1202  and  O3'_1203 
REMARK       I    between atoms: O3'_1203  and  P_1204 
REMARK       I    between atoms: P_1204  and  O5'_1207 
REMARK       I    between atoms: O5'_1207  and  C5'_1208 
REMARK       I    between atoms: C5'_1208  and  C4'_1209 
REMARK       I    between atoms: C1'_1211  and  N1_1212 
REMARK       I    between atoms: C4_1217  and  N4_1218 
REMARK       I    between atoms: C2'_1222  and  O2'_1223 
REMARK       I    between atoms: C3'_1225  and  O3'_1226 
REMARK       I    between atoms: O3'_1226  and  P_1227 
REMARK       I    between atoms: P_1227  and  O5'_1230 
REMARK       I    between atoms: O5'_1230  and  C5'_1231 
REMARK       I    between atoms: C5'_1231  and  C4'_1232 
REMARK       I    between atoms: C1'_1234  and  N1_1235 
REMARK       I    between atoms: C4_1240  and  N4_1241 
REMARK       I    between atoms: C2'_1245  and  O2'_1246 
REMARK       I    between atoms: C3'_1248  and  O3'_1249 
REMARK       I    between atoms: O3'_1249  and  P_1250 
REMARK       I    between atoms: P_1250  and  O5'_1253 
REMARK       I    between atoms: O5'_1253  and  C5'_1254 
REMARK       I    between atoms: C5'_1254  and  C4'_1255 
REMARK       I    between atoms: C1'_1257  and  N1_1258 
REMARK       I    between atoms: C4_1263  and  N4_1264 
REMARK       I    between atoms: C2'_1268  and  O2'_1269 
REMARK       I    between atoms: C3'_1271  and  O3'_1272 
ROOT
ATOM      1 'HO5   G A   1     -41.629   3.481  51.127  1.00  0.00     0.209 HD
ATOM      2  O5'   G A   1     -42.435   3.532  51.646  1.00  0.00    -0.398 OA
ATOM      3  C5'   G A   1     -42.730   4.920  51.830  1.00  0.00     0.198 C 
ATOM      4  C4'   G A   1     -41.878   5.775  50.922  1.00  0.00     0.180 C 
ATOM      5  O4'   G A   1     -40.491   5.673  51.350  1.00  0.00    -0.353 OA
ATOM      6  C1'   G A   1     -39.651   5.518  50.221  1.00  0.00     0.262 C 
ATOM      7  N9    G A   1     -39.106   4.163  50.236  1.00  0.00    -0.293 N 
ATOM      8  C4    G A   1     -38.290   3.601  49.283  1.00  0.00     0.187 A 
ATOM      9  N3    G A   1     -37.844   4.207  48.163  1.00  0.00    -0.044 NA
ATOM     10  C2    G A   1     -37.080   3.407  47.442  1.00  0.00     0.703 A 
ATOM     11  N2    G A   1     -36.553   3.848  46.297  1.00  0.00    -0.233 N 
ATOM     12  H21   G A   1     -36.745   4.791  45.995  1.00  0.00     0.174 HD
ATOM     13  H22   G A   1     -35.968   3.242  45.739  1.00  0.00     0.174 HD
ATOM     14  N1    G A   1     -36.776   2.117  47.788  1.00  0.00    -0.153 N 
ATOM     15  H1    G A   1     -36.182   1.594  47.164  1.00  0.00     0.187 HD
ATOM     16  C6    G A   1     -37.221   1.471  48.935  1.00  0.00     0.292 A 
ATOM     17  O6    G A   1     -36.883   0.300  49.152  1.00  0.00    -0.265 OA
ATOM     18  C5    G A   1     -38.046   2.317  49.723  1.00  0.00     0.173 A 
ATOM     19  N7    G A   1     -38.691   2.077  50.929  1.00  0.00    -0.234 NA
ATOM     20  C8    G A   1     -39.304   3.198  51.193  1.00  0.00     0.214 A 
ATOM     21  C2'   G A   1     -40.498   5.826  48.988  1.00  0.00     0.199 C 
ATOM     22  C3'   G A   1     -41.870   5.360  49.456  1.00  0.00     0.198 C 
ENDROOT
BRANCH  22  23
ATOM     23  O3'   G A   1     -42.932   5.977  48.732  1.00  0.00    -0.279 OA
BRANCH  23  24
ATOM     24  P     G A   2     -43.543   7.375  49.242  1.00  0.00     0.408 P 
ATOM     25  OP2   G A   2     -44.974   7.169  49.581  1.00  0.00    -0.624 OA
ATOM     26  OP1   G A   2     -42.614   7.910  50.270  1.00  0.00    -0.624 OA
BRANCH  24  27
ATOM     27  O5'   G A   2     -43.465   8.320  47.961  1.00  0.00    -0.287 OA
ATOM     28  C5'   G A   2     -44.560   9.159  47.600  1.00  0.00     0.216 C 
ATOM     29  C4'   G A   2     -44.260   9.884  46.309  1.00  0.00     0.180 C 
ATOM     30  C3'   G A   2     -43.745   9.018  45.169  1.00  0.00     0.198 C 
ATOM     31  O4'   G A   2     -43.188  10.838  46.536  1.00  0.00    -0.353 OA
ATOM     32  C2'   G A   2     -43.002  10.030  44.306  1.00  0.00     0.199 C 
ATOM     33  O3'   G A   2     -44.809   8.378  44.469  1.00  0.00    -0.279 OA
ATOM     34  O2'   G A   2     -43.903  10.800  43.532  1.00  0.00    -0.388 OA
ATOM     35  C1'   G A   2     -42.380  10.930  45.374  1.00  0.00     0.262 C 
ATOM     36 'HO2   G A   2     -44.707  10.286  43.452  1.00  0.00     0.210 HD
ATOM     37  N9    G A   2     -41.015  10.555  45.729  1.00  0.00    -0.293 N 
ATOM     38  C8    G A   2     -40.588   9.983  46.903  1.00  0.00     0.214 A 
ATOM     39  C4    G A   2     -39.897  10.709  44.945  1.00  0.00     0.187 A 
ATOM     40  N7    G A   2     -39.302   9.765  46.932  1.00  0.00    -0.234 NA
ATOM     41  C5    G A   2     -38.851  10.220  45.699  1.00  0.00     0.173 A 
ATOM     42  C6    G A   2     -37.543  10.245  45.149  1.00  0.00     0.292 A 
ATOM     43  O6    G A   2     -36.484   9.860  45.657  1.00  0.00    -0.265 OA
ATOM     44  N1    G A   2     -37.538  10.787  43.869  1.00  0.00    -0.153 N 
ATOM     45  H1    G A   2     -36.651  10.845  43.394  1.00  0.00     0.187 HD
ATOM     46  C2    G A   2     -38.645  11.248  43.204  1.00  0.00     0.703 A 
ATOM     47  N2    G A   2     -38.435  11.733  41.979  1.00  0.00    -0.233 N 
ATOM     48  N3    G A   2     -39.867  11.232  43.703  1.00  0.00    -0.044 NA
ATOM     49  H22   G A   2     -37.502  11.749  41.588  1.00  0.00     0.174 HD
ATOM     50  H21   G A   2     -39.216  12.085  41.444  1.00  0.00     0.174 HD
ATOM     51  P     C A   3     -44.543   6.989  43.705  1.00  0.00     0.408 P 
ATOM     52  OP2   C A   3     -43.873   6.054  44.644  1.00  0.00    -0.624 OA
ATOM     53  O5'   C A   3     -43.504   7.372  42.559  1.00  0.00    -0.287 OA
ATOM     54  OP1   C A   3     -45.818   6.589  43.057  1.00  0.00    -0.624 OA
ATOM     55  C5'   C A   3     -43.855   8.294  41.529  1.00  0.00     0.216 C 
ATOM     56  C4'   C A   3     -42.733   8.406  40.522  1.00  0.00     0.180 C 
ATOM     57  C3'   C A   3     -42.062   7.100  40.127  1.00  0.00     0.198 C 
ATOM     58  O4'   C A   3     -41.649   9.187  41.094  1.00  0.00    -0.353 OA
ATOM     59  O3'   C A   3     -42.802   6.392  39.137  1.00  0.00    -0.279 OA
ATOM     60  C2'   C A   3     -40.713   7.584  39.612  1.00  0.00     0.199 C 
ATOM     61  P     T A   4     -42.594   4.806  38.969  1.00  0.00     0.408 P 
ATOM     62  O5'   T A   4     -41.103   4.668  38.424  1.00  0.00    -0.287 OA
ATOM     63  OP1   T A   4     -43.523   4.347  37.905  1.00  0.00    -0.624 OA
ATOM     64  OP2   T A   4     -42.653   4.179  40.316  1.00  0.00    -0.624 OA
ATOM     65  C5'   T A   4     -40.784   4.998  37.072  1.00  0.00     0.216 C 
ATOM     66  C4'   T A   4     -39.286   5.102  36.894  1.00  0.00     0.180 C 
ATOM     67  C3'   T A   4     -38.522   3.789  36.904  1.00  0.00     0.198 C 
ATOM     68  O4'   T A   4     -38.702   5.825  38.008  1.00  0.00    -0.353 OA
ATOM     69  C2'   T A   4     -37.101   4.252  37.210  1.00  0.00     0.199 C 
ATOM     70  O2'   T A   4     -36.476   4.781  36.057  1.00  0.00    -0.388 OA
ATOM     71  C1'   T A   4     -37.362   5.399  38.191  1.00  0.00     0.264 C 
ATOM     72 'HO2   T A   4     -36.679   4.189  35.333  1.00  0.00     0.210 HD
ATOM     73  N1    T A   4     -37.178   5.014  39.599  1.00  0.00    -0.280 N 
ATOM     74  C2    T A   4     -35.882   4.848  40.053  1.00  0.00     0.331 A 
ATOM     75  C6    T A   4     -38.253   4.822  40.437  1.00  0.00     0.104 A 
ATOM     76  O2    T A   4     -34.905   5.011  39.346  1.00  0.00    -0.246 OA
ATOM     77  N3    T A   4     -35.771   4.484  41.370  1.00  0.00    -0.275 N 
ATOM     78  H3    T A   4     -34.833   4.356  41.720  1.00  0.00     0.173 HD
ATOM     79  C4    T A   4     -36.798   4.276  42.262  1.00  0.00     0.250 A 
ATOM     80  C5    T A   4     -38.106   4.470  41.719  1.00  0.00     0.092 A 
ATOM     81  O4    T A   4     -36.535   3.948  43.419  1.00  0.00    -0.268 OA
ATOM     82  C1'   C A   3     -40.407   8.700  40.611  1.00  0.00     0.264 C 
ATOM     83  O2'   C A   3     -40.827   8.150  38.320  1.00  0.00    -0.388 OA
ATOM     84  N1    C A   3     -39.600   8.250  41.756  1.00  0.00    -0.278 N 
ATOM     85  C2    C A   3     -38.214   8.181  41.614  1.00  0.00     0.352 A 
ATOM     86  C6    C A   3     -40.190   7.902  42.941  1.00  0.00     0.102 A 
ATOM     87  N3    C A   3     -37.460   7.764  42.655  1.00  0.00    -0.177 NA
ATOM     88  O2    C A   3     -37.705   8.504  40.532  1.00  0.00    -0.244 OA
ATOM     89  C4    C A   3     -38.043   7.426  43.806  1.00  0.00     0.128 A 
ATOM     90  N4    C A   3     -37.258   7.022  44.802  1.00  0.00    -0.384 N 
ATOM     91  C5    C A   3     -39.456   7.489  43.983  1.00  0.00     0.067 A 
ATOM     92  H41   C A   3     -37.657   6.757  45.691  1.00  0.00     0.157 HD
ATOM     93  H42   C A   3     -36.257   6.983  44.664  1.00  0.00     0.157 HD
ATOM     94 'HO2   C A   3     -41.448   7.609  37.834  1.00  0.00     0.210 HD
BRANCH  67  95
ATOM     95  O3'   T A   4     -38.619   3.106  35.657  1.00  0.00    -0.279 OA
BRANCH  95  96
ATOM     96  P     C A   5     -39.038   1.553  35.626  1.00  0.00     0.408 P 
ATOM     97  OP1   C A   5     -38.181   0.883  34.615  1.00  0.00    -0.624 OA
ATOM     98  OP2   C A   5     -40.516   1.465  35.510  1.00  0.00    -0.624 OA
BRANCH  96  99
ATOM     99  O5'   C A   5     -38.622   1.012  37.067  1.00  0.00    -0.287 OA
BRANCH  99 100
ATOM    100  C5'   C A   5     -37.309   0.512  37.312  1.00  0.00     0.216 C 
BRANCH 100 101
ATOM    101  C4'   C A   5     -36.841   0.922  38.690  1.00  0.00     0.180 C 
ATOM    102  C3'   C A   5     -36.075  -0.134  39.471  1.00  0.00     0.198 C 
ATOM    103  C2'   C A   5     -36.234   0.346  40.910  1.00  0.00     0.199 C 
ATOM    104  C1'   C A   5     -37.649   0.934  40.884  1.00  0.00     0.264 C 
ATOM    105  O4'   C A   5     -37.990   1.190  39.532  1.00  0.00    -0.353 OA
BRANCH 102 106
ATOM    106  O3'   C A   5     -34.711  -0.206  39.068  1.00  0.00    -0.279 OA
BRANCH 106 107
ATOM    107  P     G A   6     -33.747  -1.326  39.706  1.00  0.00     0.408 P 
ATOM    108  OP1   G A   6     -34.613  -2.450  40.148  1.00  0.00    -0.624 OA
ATOM    109  OP2   G A   6     -32.843  -0.669  40.684  1.00  0.00    -0.624 OA
BRANCH 107 110
ATOM    110  O5'   G A   6     -32.868  -1.830  38.475  1.00  0.00    -0.287 OA
BRANCH 110 111
ATOM    111  C5'   G A   6     -33.298  -1.621  37.131  1.00  0.00     0.216 C 
BRANCH 111 112
ATOM    112  C4'   G A   6     -32.153  -1.112  36.286  1.00  0.00     0.180 C 
ATOM    113  C3'   G A   6     -31.202  -2.174  35.753  1.00  0.00     0.198 C 
ATOM    114  C2'   G A   6     -29.934  -1.368  35.499  1.00  0.00     0.199 C 
ATOM    115  C1'   G A   6     -29.952  -0.406  36.687  1.00  0.00     0.262 C 
ATOM    116  O4'   G A   6     -31.301  -0.254  37.094  1.00  0.00    -0.353 OA
BRANCH 113 117
ATOM    117  O3'   G A   6     -31.707  -2.787  34.571  1.00  0.00    -0.279 OA
ATOM    118  P     T A   7     -31.585  -2.025  33.158  1.00  0.00     0.408 P 
ATOM    119  OP1   T A   7     -32.096  -2.946  32.111  1.00  0.00    -0.624 OA
ATOM    120  OP2   T A   7     -30.215  -1.466  33.038  1.00  0.00    -0.624 OA
ATOM    121  O5'   T A   7     -32.605  -0.807  33.287  1.00  0.00    -0.287 OA
ATOM    122  C5'   T A   7     -34.012  -1.032  33.373  1.00  0.00     0.216 C 
ATOM    123  C4'   T A   7     -34.721   0.240  33.778  1.00  0.00     0.180 C 
ATOM    124  C3'   T A   7     -34.594   1.400  32.802  1.00  0.00     0.198 C 
ATOM    125  O4'   T A   7     -34.130   0.744  35.001  1.00  0.00    -0.353 OA
ATOM    126  O3'   T A   7     -35.557   1.303  31.754  1.00  0.00    -0.279 OA
ATOM    127  C2'   T A   7     -34.825   2.617  33.694  1.00  0.00     0.199 C 
ATOM    128  P     T A   8     -35.355   2.150  30.402  1.00  0.00     0.408 P 
ATOM    129  OP2   T A   8     -33.921   2.519  30.288  1.00  0.00    -0.624 OA
ATOM    130  OP1   T A   8     -36.008   1.393  29.304  1.00  0.00    -0.624 OA
ATOM    131  O5'   T A   8     -36.192   3.483  30.655  1.00  0.00    -0.287 OA
ATOM    132  C5'   T A   8     -37.618   3.465  30.696  1.00  0.00     0.216 C 
ATOM    133  C4'   T A   8     -38.155   4.878  30.732  1.00  0.00     0.180 C 
ATOM    134  C3'   T A   8     -37.589   5.810  29.667  1.00  0.00     0.198 C 
ATOM    135  O4'   T A   8     -37.783   5.485  32.002  1.00  0.00    -0.353 OA
ATOM    136  C2'   T A   8     -37.651   7.173  30.346  1.00  0.00     0.199 C 
ATOM    137  O3'   T A   8     -38.360   5.770  28.469  1.00  0.00    -0.279 OA
ATOM    138  O2'   T A   8     -38.965   7.699  30.314  1.00  0.00    -0.388 OA
ATOM    139  C1'   T A   8     -37.304   6.799  31.785  1.00  0.00     0.264 C 
ATOM    140 'HO2   T A   8     -39.439   7.208  29.643  1.00  0.00     0.210 HD
ATOM    141  N1    T A   8     -35.861   6.821  32.070  1.00  0.00    -0.280 N 
ATOM    142  C2    T A   8     -35.315   7.999  32.547  1.00  0.00     0.331 A 
ATOM    143  C6    T A   8     -35.080   5.708  31.867  1.00  0.00     0.104 A 
ATOM    144  O2    T A   8     -35.972   9.004  32.743  1.00  0.00    -0.246 OA
ATOM    145  N3    T A   8     -33.965   7.954  32.788  1.00  0.00    -0.275 N 
ATOM    146  H3    T A   8     -33.544   8.802  33.132  1.00  0.00     0.173 HD
ATOM    147  C4    T A   8     -33.126   6.878  32.605  1.00  0.00     0.250 A 
ATOM    148  C5    T A   8     -33.767   5.702  32.112  1.00  0.00     0.092 A 
ATOM    149  O4    T A   8     -31.930   6.992  32.873  1.00  0.00    -0.268 OA
ATOM    150  O2'   T A   7     -36.205   2.846  33.898  1.00  0.00    -0.388 OA
ATOM    151  C1'   T A   7     -34.206   2.159  35.016  1.00  0.00     0.264 C 
ATOM    152 'HO2   T A   7     -36.669   2.470  33.149  1.00  0.00     0.210 HD
ATOM    153  N1    T A   7     -32.857   2.692  35.253  1.00  0.00    -0.280 N 
ATOM    154  C6    T A   7     -31.735   1.909  35.088  1.00  0.00     0.104 A 
ATOM    155  C2    T A   7     -32.750   4.011  35.649  1.00  0.00     0.331 A 
ATOM    156  C5    T A   7     -30.502   2.373  35.305  1.00  0.00     0.092 A 
ATOM    157  C4    T A   7     -30.310   3.726  35.721  1.00  0.00     0.250 A 
ATOM    158  N3    T A   7     -31.470   4.452  35.861  1.00  0.00    -0.275 N 
ATOM    159  O4    T A   7     -29.228   4.266  35.954  1.00  0.00    -0.268 OA
ATOM    160  H3    T A   7     -31.374   5.415  36.146  1.00  0.00     0.173 HD
ATOM    161  O2    T A   7     -33.714   4.738  35.803  1.00  0.00    -0.246 OA
BRANCH 137 162
ATOM    162  P     G A   9     -37.631   5.931  27.044  1.00  0.00     0.408 P 
ATOM    163  OP2   G A   9     -37.419   4.575  26.477  1.00  0.00    -0.624 OA
ATOM    164  OP1   G A   9     -38.397   6.939  26.267  1.00  0.00    -0.624 OA
BRANCH 162 165
ATOM    165  O5'   G A   9     -36.208   6.552  27.402  1.00  0.00    -0.287 OA
BRANCH 165 166
ATOM    166  C5'   G A   9     -36.000   7.963  27.405  1.00  0.00     0.216 C 
ATOM    167  C4'   G A   9     -34.555   8.282  27.092  1.00  0.00     0.180 C 
ATOM    168  C3'   G A   9     -34.066   7.842  25.718  1.00  0.00     0.198 C 
ATOM    169  O4'   G A   9     -33.702   7.567  28.028  1.00  0.00    -0.353 OA
ATOM    170  O3'   G A   9     -34.354   8.817  24.720  1.00  0.00    -0.279 OA
ATOM    171  C2'   G A   9     -32.567   7.669  25.942  1.00  0.00     0.199 C 
ATOM    172  P     G A  10     -34.502   8.368  23.181  1.00  0.00     0.408 P 
ATOM    173  OP1   G A  10     -34.873   9.580  22.405  1.00  0.00    -0.624 OA
ATOM    174  OP2   G A  10     -35.373   7.167  23.121  1.00  0.00    -0.624 OA
ATOM    175  O5'   G A  10     -33.028   7.942  22.754  1.00  0.00    -0.287 OA
ATOM    176  C5'   G A  10     -31.942   8.868  22.821  1.00  0.00     0.216 C 
ATOM    177  C4'   G A  10     -30.642   8.173  22.486  1.00  0.00     0.180 C 
ATOM    178  O4'   G A  10     -30.572   6.926  23.236  1.00  0.00    -0.353 OA
ATOM    179  C3'   G A  10     -30.474   7.787  21.017  1.00  0.00     0.198 C 
ATOM    180  C1'   G A  10     -30.337   5.856  22.348  1.00  0.00     0.262 C 
ATOM    181  C2'   G A  10     -30.871   6.315  20.996  1.00  0.00     0.199 C 
ATOM    182  N9    G A  10     -30.981   4.657  22.876  1.00  0.00    -0.293 N 
ATOM    183  C8    G A  10     -32.159   4.586  23.579  1.00  0.00     0.214 A 
ATOM    184  C4    G A  10     -30.520   3.369  22.760  1.00  0.00     0.187 A 
ATOM    185  N7    G A  10     -32.486   3.366  23.912  1.00  0.00    -0.234 NA
ATOM    186  C5    G A  10     -31.458   2.585  23.399  1.00  0.00     0.173 A 
ATOM    187  C6    G A  10     -31.257   1.179  23.444  1.00  0.00     0.292 A 
ATOM    188  O6    G A  10     -31.970   0.312  23.964  1.00  0.00    -0.265 OA
ATOM    189  N1    G A  10     -30.084   0.811  22.797  1.00  0.00    -0.153 N 
ATOM    190  H1    G A  10     -29.857  -0.172  22.773  1.00  0.00     0.187 HD
ATOM    191  C2    G A  10     -29.213   1.679  22.190  1.00  0.00     0.703 A 
ATOM    192  N3    G A  10     -29.385   2.986  22.141  1.00  0.00    -0.044 NA
ATOM    193  N2    G A  10     -28.134   1.132  21.626  1.00  0.00    -0.233 N 
ATOM    194  H22   G A  10     -27.996   0.131  21.654  1.00  0.00     0.174 HD
ATOM    195  H21   G A  10     -27.458   1.724  21.166  1.00  0.00     0.174 HD
ATOM    196  O2'   G A   9     -31.902   8.919  25.941  1.00  0.00    -0.388 OA
ATOM    197  C1'   G A   9     -32.542   7.103  27.362  1.00  0.00     0.262 C 
ATOM    198 'HO2   G A   9     -32.512   9.554  25.567  1.00  0.00     0.210 HD
BRANCH 181 199
ATOM    199  O2'   G A  10     -30.191   5.614  19.971  1.00  0.00    -0.388 OA
ATOM    200 'HO2   G A  10     -30.619   5.846  19.146  1.00  0.00     0.210 HD
ENDBRANCH 181 199
BRANCH 179 201
ATOM    201  O3'   G A  10     -29.131   7.983  20.581  1.00  0.00    -0.279 OA
BRANCH 201 202
ATOM    202  P     T A  11     -28.265   9.199  21.180  1.00  0.00     0.408 P 
ATOM    203  OP2   T A  11     -29.197  10.286  21.575  1.00  0.00    -0.624 OA
ATOM    204  OP1   T A  11     -27.332   8.634  22.186  1.00  0.00    -0.624 OA
BRANCH 202 205
ATOM    205  O5'   T A  11     -27.410   9.713  19.937  1.00  0.00    -0.287 OA
BRANCH 205 206
ATOM    206  C5'   T A  11     -27.640  10.997  19.358  1.00  0.00     0.216 C 
BRANCH 206 207
ATOM    207  C4'   T A  11     -26.479  11.382  18.469  1.00  0.00     0.180 C 
ATOM    208  O4'   T A  11     -26.895  12.476  17.599  1.00  0.00    -0.353 OA
ATOM    209  C1'   T A  11     -25.894  13.479  17.581  1.00  0.00     0.264 C 
ATOM    210  C2'   T A  11     -24.635  12.844  18.165  1.00  0.00     0.199 C 
ATOM    211  N1    T A  11     -26.382  14.640  18.343  1.00  0.00    -0.280 N 
ATOM    212  O2'   T A  11     -23.970  12.121  17.146  1.00  0.00    -0.388 OA
ATOM    213  C3'   T A  11     -25.247  11.908  19.197  1.00  0.00     0.198 C 
ATOM    214 'HO2   T A  11     -23.614  11.333  17.556  1.00  0.00     0.210 HD
ATOM    215  O3'   T A  11     -24.364  10.854  19.569  1.00  0.00    -0.279 OA
ATOM    216  P     C A  12     -23.580  10.924  20.973  1.00  0.00     0.408 P 
ATOM    217  O5'   C A  12     -22.475  12.050  20.740  1.00  0.00    -0.287 OA
ATOM    218  OP2   C A  12     -24.520  11.410  22.014  1.00  0.00    -0.624 OA
ATOM    219  OP1   C A  12     -22.886   9.625  21.159  1.00  0.00    -0.624 OA
ATOM    220  C5'   C A  12     -21.340  11.806  19.910  1.00  0.00     0.216 C 
ATOM    221  C4'   C A  12     -20.541  13.076  19.731  1.00  0.00     0.180 C 
ATOM    222  O4'   C A  12     -21.409  14.110  19.191  1.00  0.00    -0.353 OA
ATOM    223  C3'   C A  12     -19.981  13.684  21.008  1.00  0.00     0.198 C 
ATOM    224  C1'   C A  12     -21.082  15.360  19.773  1.00  0.00     0.264 C 
ATOM    225  C2'   C A  12     -19.835  15.153  20.630  1.00  0.00     0.199 C 
ATOM    226  N1    C A  12     -22.247  15.840  20.536  1.00  0.00    -0.278 N 
ATOM    227  C6    C A  12     -23.294  15.006  20.816  1.00  0.00     0.102 A 
ATOM    228  C2    C A  12     -22.267  17.168  20.975  1.00  0.00     0.352 A 
ATOM    229  C5    C A  12     -24.356  15.439  21.506  1.00  0.00     0.067 A 
ATOM    230  C4    C A  12     -24.350  16.797  21.937  1.00  0.00     0.128 A 
ATOM    231  N3    C A  12     -23.333  17.618  21.673  1.00  0.00    -0.177 NA
ATOM    232  N4    C A  12     -25.380  17.286  22.626  1.00  0.00    -0.384 N 
ATOM    233  H42   C A  12     -25.370  18.250  22.927  1.00  0.00     0.157 HD
ATOM    234  H41   C A  12     -26.171  16.697  22.846  1.00  0.00     0.157 HD
ATOM    235  O2    C A  12     -21.303  17.903  20.713  1.00  0.00    -0.244 OA
ATOM    236  C6    T A  11     -27.590  14.606  19.002  1.00  0.00     0.104 A 
ATOM    237  C2    T A  11     -25.583  15.767  18.381  1.00  0.00     0.331 A 
ATOM    238  C5    T A  11     -28.045  15.639  19.716  1.00  0.00     0.092 A 
ATOM    239  C4    T A  11     -27.272  16.835  19.813  1.00  0.00     0.250 A 
ATOM    240  N3    T A  11     -26.082  16.806  19.123  1.00  0.00    -0.275 N 
ATOM    241  O4    T A  11     -27.566  17.835  20.466  1.00  0.00    -0.268 OA
ATOM    242  H3    T A  11     -25.515  17.640  19.168  1.00  0.00     0.173 HD
ATOM    243  O2    T A  11     -24.515  15.842  17.804  1.00  0.00    -0.246 OA
BRANCH 225 244
ATOM    244  O2'   C A  12     -18.690  15.365  19.825  1.00  0.00    -0.388 OA
ATOM    245 'HO2   C A  12     -18.327  16.215  20.073  1.00  0.00     0.210 HD
ENDBRANCH 225 244
BRANCH 223 246
ATOM    246  O3'   C A  12     -18.738  13.092  21.378  1.00  0.00    -0.279 OA
BRANCH 246 247
ATOM    247  P     T A  13     -18.594  12.356  22.801  1.00  0.00     0.408 P 
ATOM    248  OP2   T A  13     -17.185  11.917  22.966  1.00  0.00    -0.624 OA
ATOM    249  OP1   T A  13     -19.212  13.239  23.822  1.00  0.00    -0.624 OA
BRANCH 247 250
ATOM    250  O5'   T A  13     -19.501  11.053  22.656  1.00  0.00    -0.287 OA
BRANCH 250 251
ATOM    251  C5'   T A  13     -20.630  10.845  23.503  1.00  0.00     0.216 C 
BRANCH 251 252
ATOM    252  C4'   T A  13     -20.187  10.691  24.939  1.00  0.00     0.180 C 
ATOM    253  O4'   T A  13     -21.127  11.388  25.805  1.00  0.00    -0.353 OA
ATOM    254  C1'   T A  13     -21.328  10.638  26.993  1.00  0.00     0.264 C 
ATOM    255  C2'   T A  13     -20.324   9.487  26.973  1.00  0.00     0.199 C 
ATOM    256  O2'   T A  13     -19.110   9.932  27.551  1.00  0.00    -0.388 OA
ATOM    257  C3'   T A  13     -20.172   9.266  25.475  1.00  0.00     0.198 C 
ATOM    258 'HO2   T A  13     -18.410   9.681  26.949  1.00  0.00     0.210 HD
ATOM    259  O3'   T A  13     -18.966   8.584  25.144  1.00  0.00    -0.279 OA
ATOM    260  P     C A  14     -18.944   6.977  25.099  1.00  0.00     0.408 P 
ATOM    261  O5'   C A  14     -19.191   6.545  26.614  1.00  0.00    -0.287 OA
ATOM    262  OP1   C A  14     -17.570   6.561  24.717  1.00  0.00    -0.624 OA
ATOM    263  OP2   C A  14     -20.102   6.514  24.292  1.00  0.00    -0.624 OA
ATOM    264  C5'   C A  14     -18.243   6.863  27.631  1.00  0.00     0.216 C 
ATOM    265  C4'   C A  14     -18.722   6.354  28.972  1.00  0.00     0.180 C 
ATOM    266  O4'   C A  14     -19.885   7.120  29.391  1.00  0.00    -0.353 OA
ATOM    267  C3'   C A  14     -19.211   4.914  29.000  1.00  0.00     0.198 C 
ATOM    268  C1'   C A  14     -20.773   6.277  30.110  1.00  0.00     0.264 C 
ATOM    269  C2'   C A  14     -20.099   4.911  30.236  1.00  0.00     0.199 C 
ATOM    270  N1    C A  14     -22.060   6.234  29.393  1.00  0.00    -0.278 N 
ATOM    271  O2'   C A  14     -19.324   4.894  31.421  1.00  0.00    -0.388 OA
ATOM    272 'HO2   C A  14     -18.463   4.551  31.180  1.00  0.00     0.210 HD
ATOM    273  C2    C A  14     -23.219   5.915  30.106  1.00  0.00     0.352 A 
ATOM    274  C6    C A  14     -22.125   6.498  28.054  1.00  0.00     0.102 A 
ATOM    275  O2    C A  14     -23.132   5.680  31.319  1.00  0.00    -0.244 OA
ATOM    276  N3    C A  14     -24.403   5.870  29.456  1.00  0.00    -0.177 NA
ATOM    277  C4    C A  14     -24.457   6.134  28.151  1.00  0.00     0.128 A 
ATOM    278  C5    C A  14     -23.292   6.463  27.398  1.00  0.00     0.067 A 
ATOM    279  N4    C A  14     -25.647   6.083  27.555  1.00  0.00    -0.384 N 
ATOM    280  H42   C A  14     -26.468   5.847  28.094  1.00  0.00     0.157 HD
ATOM    281  H41   C A  14     -25.733   6.277  26.568  1.00  0.00     0.157 HD
ATOM    282  O3'   C A  14     -18.137   3.983  29.094  1.00  0.00    -0.279 OA
ATOM    283  P     G A  15     -18.350   2.466  28.602  1.00  0.00     0.408 P 
ATOM    284  OP1   G A  15     -17.048   1.768  28.747  1.00  0.00    -0.624 OA
ATOM    285  OP2   G A  15     -19.027   2.490  27.279  1.00  0.00    -0.624 OA
ATOM    286  O5'   G A  15     -19.365   1.854  29.669  1.00  0.00    -0.287 OA
ATOM    287  C5'   G A  15     -19.013   1.771  31.049  1.00  0.00     0.216 C 
ATOM    288  C4'   G A  15     -20.129   1.122  31.836  1.00  0.00     0.180 C 
ATOM    289  O4'   G A  15     -21.248   2.041  31.942  1.00  0.00    -0.353 OA
ATOM    290  C3'   G A  15     -20.753  -0.116  31.213  1.00  0.00     0.198 C 
ATOM    291  C1'   G A  15     -22.456   1.302  32.019  1.00  0.00     0.262 C 
ATOM    292  N9    G A  15     -23.345   1.751  30.952  1.00  0.00    -0.293 N 
ATOM    293  C2'   G A  15     -22.099  -0.183  31.925  1.00  0.00     0.199 C 
ATOM    294  C8    G A  15     -22.998   2.435  29.812  1.00  0.00     0.214 A 
ATOM    295  C4    G A  15     -24.704   1.566  30.892  1.00  0.00     0.187 A 
ATOM    296  N7    G A  15     -24.017   2.699  29.040  1.00  0.00    -0.234 NA
ATOM    297  C5    G A  15     -25.104   2.153  29.711  1.00  0.00     0.173 A 
ATOM    298  C6    G A  15     -26.479   2.119  29.363  1.00  0.00     0.292 A 
ATOM    299  N1    G A  15     -27.235   1.465  30.328  1.00  0.00    -0.153 N 
ATOM    300  O6    G A  15     -27.032   2.580  28.358  1.00  0.00    -0.265 OA
ATOM    301  H1    G A  15     -28.228   1.394  30.167  1.00  0.00     0.187 HD
ATOM    302  C2    G A  15     -26.734   0.912  31.479  1.00  0.00     0.703 A 
ATOM    303  N3    G A  15     -25.458   0.933  31.816  1.00  0.00    -0.044 NA
ATOM    304  N2    G A  15     -27.620   0.323  32.285  1.00  0.00    -0.233 N 
ATOM    305  H21   G A  15     -27.303  -0.100  33.145  1.00  0.00     0.174 HD
ATOM    306  H22   G A  15     -28.599   0.298  32.035  1.00  0.00     0.174 HD
ATOM    307  O2'   G A  15     -21.960  -0.699  33.235  1.00  0.00    -0.388 OA
ATOM    308 'HO2   G A  15     -21.127  -1.172  33.257  1.00  0.00     0.210 HD
ATOM    309  O3'   G A  15     -19.962  -1.281  31.431  1.00  0.00    -0.279 OA
ATOM    310  P     C A  16     -20.098  -2.536  30.433  1.00  0.00     0.408 P 
ATOM    311  OP2   C A  16     -19.913  -2.052  29.042  1.00  0.00    -0.624 OA
ATOM    312  O5'   C A  16     -21.615  -2.999  30.600  1.00  0.00    -0.287 OA
ATOM    313  OP1   C A  16     -19.225  -3.616  30.958  1.00  0.00    -0.624 OA
ATOM    314  C5'   C A  16     -22.081  -3.551  31.830  1.00  0.00     0.216 C 
ATOM    315  C4'   C A  16     -23.566  -3.825  31.751  1.00  0.00     0.180 C 
ATOM    316  O4'   C A  16     -24.282  -2.576  31.573  1.00  0.00    -0.353 OA
ATOM    317  C3'   C A  16     -24.025  -4.664  30.569  1.00  0.00     0.198 C 
ATOM    318  C1'   C A  16     -25.475  -2.817  30.845  1.00  0.00     0.264 C 
ATOM    319  N1    C A  16     -25.504  -1.920  29.678  1.00  0.00    -0.278 N 
ATOM    320  C2'   C A  16     -25.504  -4.301  30.474  1.00  0.00     0.199 C 
ATOM    321  C2    C A  16     -26.733  -1.634  29.080  1.00  0.00     0.352 A 
ATOM    322  C6    C A  16     -24.352  -1.376  29.181  1.00  0.00     0.102 A 
ATOM    323  N3    C A  16     -26.773  -0.816  28.007  1.00  0.00    -0.177 NA
ATOM    324  O2    C A  16     -27.763  -2.139  29.549  1.00  0.00    -0.244 OA
ATOM    325  C4    C A  16     -25.646  -0.286  27.531  1.00  0.00     0.128 A 
ATOM    326  C5    C A  16     -24.376  -0.559  28.119  1.00  0.00     0.067 A 
ATOM    327  N4    C A  16     -25.735   0.519  26.475  1.00  0.00    -0.384 N 
ATOM    328  H41   C A  16     -24.905   0.942  26.084  1.00  0.00     0.157 HD
ATOM    329  H42   C A  16     -26.639   0.704  26.062  1.00  0.00     0.157 HD
BRANCH 254 330
ATOM    330  N1    T A  13     -22.730  10.196  27.032  1.00  0.00    -0.280 N 
ATOM    331  C6    T A  13     -23.466  10.057  25.878  1.00  0.00     0.104 A 
ATOM    332  C5    T A  13     -24.743   9.664  25.887  1.00  0.00     0.092 A 
ATOM    333  C4    T A  13     -25.389   9.364  27.124  1.00  0.00     0.250 A 
ATOM    334  N3    T A  13     -24.596   9.518  28.237  1.00  0.00    -0.275 N 
ATOM    335  O4    T A  13     -26.555   8.993  27.262  1.00  0.00    -0.268 OA
ATOM    336  C2    T A  13     -23.287   9.923  28.268  1.00  0.00     0.331 A 
ATOM    337  H3    T A  13     -25.019   9.310  29.129  1.00  0.00     0.173 HD
ATOM    338  O2    T A  13     -22.669  10.029  29.311  1.00  0.00    -0.246 OA
ENDBRANCH 254 330
BRANCH 320 339
ATOM    339  O2'   C A  16     -26.262  -4.995  31.447  1.00  0.00    -0.388 OA
ATOM    340 'HO2   C A  16     -27.009  -4.437  31.666  1.00  0.00     0.210 HD
ENDBRANCH 320 339
BRANCH 317 341
ATOM    341  O3'   C A  16     -23.820  -6.056  30.793  1.00  0.00    -0.279 OA
BRANCH 341 342
ATOM    342  P     T A  17     -22.652  -6.829  30.000  1.00  0.00     0.408 P 
ATOM    343  OP2   T A  17     -23.190  -8.130  29.528  1.00  0.00    -0.624 OA
ATOM    344  OP1   T A  17     -22.073  -5.874  29.021  1.00  0.00    -0.624 OA
BRANCH 342 345
ATOM    345  O5'   T A  17     -21.556  -7.123  31.119  1.00  0.00    -0.287 OA
BRANCH 345 346
ATOM    346  C5'   T A  17     -20.206  -6.692  30.956  1.00  0.00     0.216 C 
BRANCH 346 347
ATOM    347  C4'   T A  17     -19.335  -7.271  32.049  1.00  0.00     0.180 C 
ATOM    348  O4'   T A  17     -18.058  -7.665  31.483  1.00  0.00    -0.353 OA
ATOM    349  C1'   T A  17     -17.031  -7.464  32.439  1.00  0.00     0.264 C 
ATOM    350  N1    T A  17     -16.034  -6.551  31.861  1.00  0.00    -0.280 N 
ATOM    351  C2'   T A  17     -17.682  -6.936  33.718  1.00  0.00     0.199 C 
ATOM    352  C2    T A  17     -14.708  -6.737  32.211  1.00  0.00     0.331 A 
ATOM    353  C6    T A  17     -16.404  -5.543  31.001  1.00  0.00     0.104 A 
ATOM    354  N3    T A  17     -13.828  -5.854  31.641  1.00  0.00    -0.275 N 
ATOM    355  O2    T A  17     -14.339  -7.616  32.969  1.00  0.00    -0.246 OA
ATOM    356  C4    T A  17     -14.128  -4.830  30.772  1.00  0.00     0.250 A 
ATOM    357  H3    T A  17     -12.855  -5.957  31.893  1.00  0.00     0.173 HD
ATOM    358  C5    T A  17     -15.518  -4.703  30.460  1.00  0.00     0.092 A 
ATOM    359  O4    T A  17     -13.222  -4.118  30.343  1.00  0.00    -0.268 OA
ATOM    360  C3'   T A  17     -18.962  -6.313  33.171  1.00  0.00     0.198 C 
ATOM    361  O2'   T A  17     -17.974  -8.032  34.564  1.00  0.00    -0.388 OA
ATOM    362 'HO2   T A  17     -18.915  -8.004  34.738  1.00  0.00     0.210 HD
BRANCH 360 363
ATOM    363  O3'   T A  17     -19.992  -6.229  34.153  1.00  0.00    -0.279 OA
BRANCH 363 364
ATOM    364  P     T A  18     -20.161  -4.885  35.020  1.00  0.00     0.408 P 
ATOM    365  OP2   T A  18     -19.333  -5.011  36.247  1.00  0.00    -0.624 OA
ATOM    366  OP1   T A  18     -19.946  -3.736  34.104  1.00  0.00    -0.624 OA
BRANCH 364 367
ATOM    367  O5'   T A  18     -21.694  -4.897  35.454  1.00  0.00    -0.287 OA
BRANCH 367 368
ATOM    368  C5'   T A  18     -22.461  -3.694  35.477  1.00  0.00     0.216 C 
ATOM    369  C4'   T A  18     -23.930  -4.017  35.614  1.00  0.00     0.180 C 
ATOM    370  C3'   T A  18     -24.280  -5.012  36.711  1.00  0.00     0.198 C 
ATOM    371  O4'   T A  18     -24.388  -4.651  34.389  1.00  0.00    -0.353 OA
ATOM    372  C2'   T A  18     -25.582  -5.623  36.204  1.00  0.00     0.199 C 
ATOM    373  O3'   T A  18     -24.439  -4.367  37.972  1.00  0.00    -0.279 OA
ATOM    374  C1'   T A  18     -25.330  -5.664  34.696  1.00  0.00     0.264 C 
ATOM    375  O2'   T A  18     -26.680  -4.768  36.460  1.00  0.00    -0.388 OA
ATOM    376  N1    T A  18     -24.798  -6.949  34.222  1.00  0.00    -0.280 N 
ATOM    377  C6    T A  18     -23.488  -7.307  34.449  1.00  0.00     0.104 A 
ATOM    378  C2    T A  18     -25.659  -7.791  33.542  1.00  0.00     0.331 A 
ATOM    379  C5    T A  18     -22.983  -8.473  34.036  1.00  0.00     0.092 A 
ATOM    380  C4    T A  18     -23.811  -9.400  33.330  1.00  0.00     0.250 A 
ATOM    381  O4    T A  18     -23.463 -10.500  32.903  1.00  0.00    -0.268 OA
ATOM    382  N3    T A  18     -25.106  -8.978  33.135  1.00  0.00    -0.275 N 
ATOM    383  H3    T A  18     -25.719  -9.611  32.641  1.00  0.00     0.173 HD
ATOM    384  O2    T A  18     -26.820  -7.508  33.315  1.00  0.00    -0.246 OA
ATOM    385 'HO2   T A  18     -26.392  -4.137  37.120  1.00  0.00     0.210 HD
ATOM    386  P     T A  19     -23.217  -4.341  39.020  1.00  0.00     0.408 P 
ATOM    387  O5'   T A  19     -23.703  -5.300  40.196  1.00  0.00    -0.287 OA
ATOM    388  OP2   T A  19     -22.019  -4.952  38.388  1.00  0.00    -0.624 OA
ATOM    389  OP1   T A  19     -23.135  -2.962  39.564  1.00  0.00    -0.624 OA
ATOM    390  C5'   T A  19     -24.086  -6.651  39.935  1.00  0.00     0.216 C 
ATOM    391  C4'   T A  19     -25.471  -6.916  40.482  1.00  0.00     0.180 C 
ATOM    392  O4'   T A  19     -25.427  -6.791  41.931  1.00  0.00    -0.353 OA
ATOM    393  C3'   T A  19     -26.552  -5.942  40.022  1.00  0.00     0.198 C 
ATOM    394  C1'   T A  19     -26.259  -5.726  42.345  1.00  0.00     0.264 C 
ATOM    395  N1    T A  19     -25.584  -5.006  43.435  1.00  0.00    -0.280 N 
ATOM    396  C2'   T A  19     -26.531  -4.874  41.109  1.00  0.00     0.199 C 
ATOM    397  C2    T A  19     -26.260  -4.869  44.634  1.00  0.00     0.331 A 
ATOM    398  C6    T A  19     -24.321  -4.486  43.271  1.00  0.00     0.104 A 
ATOM    399  O2    T A  19     -27.378  -5.315  44.819  1.00  0.00    -0.246 OA
ATOM    400  N3    T A  19     -25.579  -4.187  45.609  1.00  0.00    -0.275 N 
ATOM    401  H3    T A  19     -26.054  -4.075  46.491  1.00  0.00     0.173 HD
ATOM    402  C4    T A  19     -24.319  -3.642  45.512  1.00  0.00     0.250 A 
ATOM    403  C5    T A  19     -23.687  -3.827  44.244  1.00  0.00     0.092 A 
ATOM    404  O4    T A  19     -23.839  -3.057  46.483  1.00  0.00    -0.268 OA
ATOM    405  O2'   T A  19     -27.797  -4.258  41.248  1.00  0.00    -0.388 OA
ATOM    406 'HO2   T A  19     -28.442  -4.873  40.895  1.00  0.00     0.210 HD
ATOM    407  O3'   T A  19     -27.823  -6.580  39.927  1.00  0.00    -0.279 OA
ATOM    408  P     G A  20     -28.426  -6.955  38.484  1.00  0.00     0.408 P 
ATOM    409  O5'   G A  20     -29.649  -7.921  38.817  1.00  0.00    -0.287 OA
ATOM    410  OP1   G A  20     -27.399  -7.746  37.761  1.00  0.00    -0.624 OA
ATOM    411  OP2   G A  20     -28.966  -5.714  37.872  1.00  0.00    -0.624 OA
ATOM    412  C5'   G A  20     -29.617  -8.784  39.953  1.00  0.00     0.216 C 
ATOM    413  C4'   G A  20     -30.671  -9.858  39.822  1.00  0.00     0.180 C 
ATOM    414  C3'   G A  20     -30.501 -10.788  38.625  1.00  0.00     0.198 C 
ATOM    415  O4'   G A  20     -31.963  -9.216  39.641  1.00  0.00    -0.353 OA
ATOM    416  O3'   G A  20     -30.959 -12.106  38.920  1.00  0.00    -0.279 OA
ATOM    417  C2'   G A  20     -31.334 -10.115  37.540  1.00  0.00     0.199 C 
ATOM    418  P     G A  21     -29.960 -13.356  38.757  1.00  0.00     0.408 P 
ATOM    419  OP1   G A  21     -30.785 -14.525  38.365  1.00  0.00    -0.624 OA
ATOM    420  O5'   G A  21     -29.032 -12.956  37.524  1.00  0.00    -0.287 OA
ATOM    421  OP2   G A  21     -29.112 -13.432  39.974  1.00  0.00    -0.624 OA
ATOM    422  C5'   G A  21     -29.577 -12.792  36.216  1.00  0.00     0.216 C 
ATOM    423  C4'   G A  21     -28.915 -13.746  35.248  1.00  0.00     0.180 C 
ATOM    424  C3'   G A  21     -29.852 -14.349  34.202  1.00  0.00     0.198 C 
ATOM    425  O4'   G A  21     -28.377 -14.876  35.995  1.00  0.00    -0.353 OA
ATOM    426  C2'   G A  21     -30.210 -15.707  34.796  1.00  0.00     0.199 C 
ATOM    427  O3'   G A  21     -29.211 -14.476  32.934  1.00  0.00    -0.279 OA
ATOM    428  C1'   G A  21     -28.894 -16.079  35.470  1.00  0.00     0.262 C 
ATOM    429  O2'   G A  21     -30.488 -16.653  33.782  1.00  0.00    -0.388 OA
ATOM    430  N9    G A  21     -29.010 -17.045  36.559  1.00  0.00    -0.293 N 
ATOM    431  C8    G A  21     -30.095 -17.256  37.374  1.00  0.00     0.214 A 
ATOM    432  C4    G A  21     -28.041 -17.928  36.970  1.00  0.00     0.187 A 
ATOM    433  N7    G A  21     -29.899 -18.193  38.261  1.00  0.00    -0.234 NA
ATOM    434  C5    G A  21     -28.603 -18.627  38.018  1.00  0.00     0.173 A 
ATOM    435  C6    G A  21     -27.830 -19.629  38.662  1.00  0.00     0.292 A 
ATOM    436  O6    G A  21     -28.146 -20.359  39.608  1.00  0.00    -0.265 OA
ATOM    437  N1    G A  21     -26.566 -19.743  38.095  1.00  0.00    -0.153 N 
ATOM    438  H1    G A  21     -25.947 -20.433  38.492  1.00  0.00     0.187 HD
ATOM    439  C2    G A  21     -26.103 -18.992  37.046  1.00  0.00     0.703 A 
ATOM    440  N2    G A  21     -24.856 -19.250  36.642  1.00  0.00    -0.233 N 
ATOM    441  N3    G A  21     -26.808 -18.057  36.437  1.00  0.00    -0.044 NA
ATOM    442  H22   G A  21     -24.303 -19.960  37.098  1.00  0.00     0.174 HD
ATOM    443  H21   G A  21     -24.471 -18.721  35.873  1.00  0.00     0.174 HD
ATOM    444 'HO2   G A  21     -30.166 -16.274  32.963  1.00  0.00     0.210 HD
ATOM    445  P     G A  22     -29.189 -13.228  31.919  1.00  0.00     0.408 P 
ATOM    446  OP1   G A  22     -29.130 -13.784  30.543  1.00  0.00    -0.624 OA
ATOM    447  O5'   G A  22     -30.614 -12.540  32.113  1.00  0.00    -0.287 OA
ATOM    448  OP2   G A  22     -28.146 -12.273  32.369  1.00  0.00    -0.624 OA
ATOM    449  C5'   G A  22     -31.815 -13.206  31.723  1.00  0.00     0.216 C 
ATOM    450  C4'   G A  22     -33.006 -12.305  31.952  1.00  0.00     0.180 C 
ATOM    451  O4'   G A  22     -32.966 -11.817  33.322  1.00  0.00    -0.353 OA
ATOM    452  C3'   G A  22     -33.047 -11.053  31.086  1.00  0.00     0.198 C 
ATOM    453  C1'   G A  22     -33.277 -10.436  33.350  1.00  0.00     0.262 C 
ATOM    454  C2'   G A  22     -33.796 -10.059  31.963  1.00  0.00     0.199 C 
ATOM    455  N9    G A  22     -32.080  -9.702  33.749  1.00  0.00    -0.293 N 
ATOM    456  O2'   G A  22     -35.192 -10.290  31.920  1.00  0.00    -0.388 OA
ATOM    457 'HO2   G A  22     -35.360 -10.795  31.123  1.00  0.00     0.210 HD
ATOM    458  C8    G A  22     -30.835 -10.223  34.003  1.00  0.00     0.214 A 
ATOM    459  C4    G A  22     -31.979  -8.346  33.944  1.00  0.00     0.187 A 
ATOM    460  N7    G A  22     -29.958  -9.318  34.342  1.00  0.00    -0.234 NA
ATOM    461  C5    G A  22     -30.668  -8.125  34.310  1.00  0.00     0.173 A 
ATOM    462  C6    G A  22     -30.249  -6.798  34.585  1.00  0.00     0.292 A 
ATOM    463  O6    G A  22     -29.132  -6.395  34.924  1.00  0.00    -0.265 OA
ATOM    464  N1    G A  22     -31.291  -5.891  34.429  1.00  0.00    -0.153 N 
ATOM    465  C2    G A  22     -32.570  -6.217  34.057  1.00  0.00     0.703 A 
ATOM    466  H1    G A  22     -31.084  -4.921  34.604  1.00  0.00     0.187 HD
ATOM    467  N3    G A  22     -32.975  -7.447  33.800  1.00  0.00    -0.044 NA
ATOM    468  N2    G A  22     -33.431  -5.201  33.960  1.00  0.00    -0.233 N 
ATOM    469  H21   G A  22     -34.385  -5.388  33.688  1.00  0.00     0.174 HD
ATOM    470  H22   G A  22     -33.133  -4.257  34.156  1.00  0.00     0.174 HD
ATOM    471  O3'   G A  22     -33.716 -11.300  29.851  1.00  0.00    -0.279 OA
ATOM    472  P     T A  23     -33.134 -10.677  28.487  1.00  0.00     0.408 P 
ATOM    473  O5'   T A  23     -33.083  -9.109  28.770  1.00  0.00    -0.287 OA
ATOM    474  OP2   T A  23     -31.742 -11.162  28.307  1.00  0.00    -0.624 OA
ATOM    475  OP1   T A  23     -34.140 -10.922  27.424  1.00  0.00    -0.624 OA
ATOM    476  C5'   T A  23     -34.273  -8.373  29.047  1.00  0.00     0.216 C 
ATOM    477  C4'   T A  23     -33.929  -6.952  29.425  1.00  0.00     0.180 C 
ATOM    478  C3'   T A  23     -33.054  -6.208  28.427  1.00  0.00     0.198 C 
ATOM    479  O4'   T A  23     -33.151  -6.967  30.654  1.00  0.00    -0.353 OA
ATOM    480  O3'   T A  23     -33.834  -5.604  27.399  1.00  0.00    -0.279 OA
ATOM    481  C2'   T A  23     -32.347  -5.185  29.306  1.00  0.00     0.199 C 
ATOM    482  P     G A  24     -33.420  -5.803  25.858  1.00  0.00     0.408 P 
ATOM    483  OP2   G A  24     -32.978  -7.209  25.663  1.00  0.00    -0.624 OA
ATOM    484  OP1   G A  24     -34.529  -5.263  25.030  1.00  0.00    -0.624 OA
ATOM    485  O5'   G A  24     -32.156  -4.852  25.673  1.00  0.00    -0.287 OA
ATOM    486  C5'   G A  24     -32.207  -3.480  26.058  1.00  0.00     0.216 C 
ATOM    487  C4'   G A  24     -30.814  -2.899  26.111  1.00  0.00     0.180 C 
ATOM    488  O4'   G A  24     -30.112  -3.447  27.260  1.00  0.00    -0.353 OA
ATOM    489  C3'   G A  24     -29.913  -3.238  24.933  1.00  0.00     0.198 C 
ATOM    490  C1'   G A  24     -28.740  -3.613  26.943  1.00  0.00     0.262 C 
ATOM    491  C2'   G A  24     -28.524  -3.066  25.531  1.00  0.00     0.199 C 
ATOM    492  N9    G A  24     -28.402  -5.027  27.078  1.00  0.00    -0.293 N 
ATOM    493  O2'   G A  24     -28.173  -1.697  25.623  1.00  0.00    -0.388 OA
ATOM    494 'HO2   G A  24     -28.757  -1.223  25.031  1.00  0.00     0.210 HD
ATOM    495  C4    G A  24     -27.140  -5.570  27.070  1.00  0.00     0.187 A 
ATOM    496  C8    G A  24     -29.273  -6.077  27.237  1.00  0.00     0.214 A 
ATOM    497  C5    G A  24     -27.324  -6.927  27.229  1.00  0.00     0.173 A 
ATOM    498  N3    G A  24     -25.985  -4.886  26.934  1.00  0.00    -0.044 NA
ATOM    499  C6    G A  24     -26.182  -7.772  27.261  1.00  0.00     0.292 A 
ATOM    500  N7    G A  24     -28.675  -7.233  27.332  1.00  0.00    -0.234 NA
ATOM    501  O6    G A  24     -26.133  -9.000  27.396  1.00  0.00    -0.265 OA
ATOM    502  N1    G A  24     -25.006  -7.046  27.119  1.00  0.00    -0.153 N 
ATOM    503  H1    G A  24     -24.140  -7.562  27.129  1.00  0.00     0.187 HD
ATOM    504  C2    G A  24     -24.932  -5.685  26.965  1.00  0.00     0.703 A 
ATOM    505  N2    G A  24     -23.707  -5.171  26.842  1.00  0.00    -0.233 N 
ATOM    506  H22   G A  24     -22.896  -5.774  26.865  1.00  0.00     0.174 HD
ATOM    507  H21   G A  24     -23.597  -4.175  26.726  1.00  0.00     0.174 HD
ATOM    508  O3'   G A  24     -30.145  -2.371  23.826  1.00  0.00    -0.279 OA
ATOM    509  P     C A  25     -29.852  -2.887  22.331  1.00  0.00     0.408 P 
ATOM    510  OP2   C A  25     -30.425  -4.250  22.180  1.00  0.00    -0.624 OA
ATOM    511  OP1   C A  25     -30.274  -1.808  21.403  1.00  0.00    -0.624 OA
ATOM    512  O5'   C A  25     -28.265  -3.006  22.268  1.00  0.00    -0.287 OA
ATOM    513  C5'   C A  25     -27.436  -1.862  22.466  1.00  0.00     0.216 C 
ATOM    514  C1'   T A  23     -32.120  -5.997  30.580  1.00  0.00     0.264 C 
ATOM    515  O2'   T A  23     -33.199  -4.094  29.607  1.00  0.00    -0.388 OA
ATOM    516  N1    T A  23     -30.826  -6.693  30.614  1.00  0.00    -0.280 N 
ATOM    517  C6    T A  23     -30.628  -7.869  29.924  1.00  0.00     0.104 A 
ATOM    518  C2    T A  23     -29.808  -6.125  31.359  1.00  0.00     0.331 A 
ATOM    519  C5    T A  23     -29.457  -8.511  29.929  1.00  0.00     0.092 A 
ATOM    520  C4    T A  23     -28.353  -7.984  30.669  1.00  0.00     0.250 A 
ATOM    521  O4    T A  23     -27.218  -8.461  30.715  1.00  0.00    -0.268 OA
ATOM    522  N3    T A  23     -28.623  -6.814  31.342  1.00  0.00    -0.275 N 
ATOM    523  H3    T A  23     -27.871  -6.429  31.893  1.00  0.00     0.173 HD
ATOM    524  O2    T A  23     -29.947  -5.091  31.989  1.00  0.00    -0.246 OA
ATOM    525 'HO2   T A  23     -33.854  -4.056  28.909  1.00  0.00     0.210 HD
ATOM    526  C1'   G A  20     -32.476  -9.519  38.359  1.00  0.00     0.262 C 
ATOM    527  O2'   G A  20     -31.876 -11.068  36.645  1.00  0.00    -0.388 OA
ATOM    528  N9    G A  20     -33.032  -8.297  37.787  1.00  0.00    -0.293 N 
ATOM    529  C8    G A  20     -32.363  -7.127  37.524  1.00  0.00     0.214 A 
ATOM    530  C4    G A  20     -34.334  -8.093  37.403  1.00  0.00     0.187 A 
ATOM    531  N7    G A  20     -33.124  -6.204  37.005  1.00  0.00    -0.234 NA
ATOM    532  C5    G A  20     -34.375  -6.801  36.922  1.00  0.00     0.173 A 
ATOM    533  C6    G A  20     -35.608  -6.291  36.439  1.00  0.00     0.292 A 
ATOM    534  N1    G A  20     -36.626  -7.233  36.539  1.00  0.00    -0.153 N 
ATOM    535  O6    G A  20     -35.851  -5.173  35.970  1.00  0.00    -0.265 OA
ATOM    536  H1    G A  20     -37.540  -6.958  36.218  1.00  0.00     0.187 HD
ATOM    537  C2    G A  20     -36.477  -8.502  37.038  1.00  0.00     0.703 A 
ATOM    538  N3    G A  20     -35.337  -8.991  37.490  1.00  0.00    -0.044 NA
ATOM    539  N2    G A  20     -37.577  -9.261  37.055  1.00  0.00    -0.233 N 
ATOM    540  H21   G A  20     -37.517 -10.202  37.415  1.00  0.00     0.174 HD
ATOM    541  H22   G A  20     -38.455  -8.901  36.713  1.00  0.00     0.174 HD
ATOM    542 'HO2   G A  20     -32.007 -11.875  37.144  1.00  0.00     0.210 HD
BRANCH 513 543
ATOM    543  C4'   C A  25     -25.980  -2.237  22.310  1.00  0.00     0.180 C 
ATOM    544  C3'   C A  25     -25.228  -1.525  21.194  1.00  0.00     0.198 C 
ATOM    545  C2'   C A  25     -24.087  -2.494  20.917  1.00  0.00     0.199 C 
ATOM    546  C1'   C A  25     -24.811  -3.832  21.044  1.00  0.00     0.264 C 
ATOM    547  O4'   C A  25     -25.883  -3.645  21.955  1.00  0.00    -0.353 OA
BRANCH 544 548
ATOM    548  O3'   C A  25     -24.767  -0.237  21.592  1.00  0.00    -0.279 OA
BRANCH 548 549
ATOM    549  P     G A  26     -24.690   0.134  23.155  1.00  0.00     0.408 P 
ATOM    550  OP2   G A  26     -25.826   1.033  23.484  1.00  0.00    -0.624 OA
ATOM    551  OP1   G A  26     -24.524  -1.140  23.900  1.00  0.00    -0.624 OA
BRANCH 549 552
ATOM    552  O5'   G A  26     -23.338   0.967  23.289  1.00  0.00    -0.287 OA
BRANCH 552 553
ATOM    553  C5'   G A  26     -23.244   2.070  24.189  1.00  0.00     0.216 C 
ATOM    554  C4'   G A  26     -22.660   3.275  23.486  1.00  0.00     0.180 C 
ATOM    555  C3'   G A  26     -23.358   3.710  22.207  1.00  0.00     0.198 C 
ATOM    556  O4'   G A  26     -21.312   2.975  23.038  1.00  0.00    -0.353 OA
ATOM    557  C2'   G A  26     -22.278   4.545  21.532  1.00  0.00     0.199 C 
ATOM    558  O3'   G A  26     -24.543   4.457  22.465  1.00  0.00    -0.279 OA
ATOM    559  O2'   G A  26     -22.175   5.825  22.126  1.00  0.00    -0.388 OA
ATOM    560  C1'   G A  26     -21.023   3.742  21.879  1.00  0.00     0.262 C 
ATOM    561 'HO2   G A  26     -23.015   6.000  22.547  1.00  0.00     0.210 HD
ATOM    562  N9    G A  26     -20.604   2.837  20.813  1.00  0.00    -0.293 N 
ATOM    563  C4    G A  26     -19.945   3.189  19.660  1.00  0.00     0.187 A 
ATOM    564  C8    G A  26     -20.786   1.477  20.755  1.00  0.00     0.214 A 
ATOM    565  N3    G A  26     -19.569   4.437  19.311  1.00  0.00    -0.044 NA
ATOM    566  C5    G A  26     -19.765   2.010  18.967  1.00  0.00     0.173 A 
ATOM    567  C2    G A  26     -18.954   4.458  18.143  1.00  0.00     0.703 A 
ATOM    568  N2    G A  26     -18.515   5.617  17.647  1.00  0.00    -0.233 N 
ATOM    569  N1    G A  26     -18.725   3.345  17.374  1.00  0.00    -0.153 N 
ATOM    570  H21   G A  26     -18.659   6.466  18.174  1.00  0.00     0.174 HD
ATOM    571  H22   G A  26     -18.043   5.648  16.754  1.00  0.00     0.174 HD
ATOM    572  H1    G A  26     -18.244   3.474  16.496  1.00  0.00     0.187 HD
ATOM    573  C6    G A  26     -19.103   2.050  17.712  1.00  0.00     0.292 A 
ATOM    574  O6    G A  26     -18.849   1.116  16.944  1.00  0.00    -0.265 OA
ATOM    575  N7    G A  26     -20.300   0.939  19.670  1.00  0.00    -0.234 NA
ATOM    576  P     A A  27     -25.656   4.612  21.314  1.00  0.00     0.408 P 
ATOM    577  O5'   A A  27     -24.913   5.422  20.161  1.00  0.00    -0.287 OA
ATOM    578  OP2   A A  27     -25.987   3.260  20.795  1.00  0.00    -0.624 OA
ATOM    579  OP1   A A  27     -26.736   5.471  21.862  1.00  0.00    -0.624 OA
ATOM    580  C5'   A A  27     -24.557   6.792  20.339  1.00  0.00     0.216 C 
ATOM    581  C4'   A A  27     -23.946   7.347  19.072  1.00  0.00     0.180 C 
ATOM    582  C3'   A A  27     -24.718   7.091  17.788  1.00  0.00     0.198 C 
ATOM    583  O4'   A A  27     -22.669   6.702  18.825  1.00  0.00    -0.353 OA
ATOM    584  O3'   A A  27     -25.806   7.998  17.624  1.00  0.00    -0.279 OA
ATOM    585  C2'   A A  27     -23.638   7.280  16.730  1.00  0.00     0.199 C 
ATOM    586  P     G A  28     -27.009   7.627  16.623  1.00  0.00     0.408 P 
ATOM    587  OP2   G A  28     -27.501   6.269  16.964  1.00  0.00    -0.624 OA
ATOM    588  OP1   G A  28     -27.955   8.772  16.627  1.00  0.00    -0.624 OA
ATOM    589  O5'   G A  28     -26.314   7.562  15.189  1.00  0.00    -0.287 OA
ATOM    590  C5'   G A  28     -26.098   8.747  14.425  1.00  0.00     0.216 C 
ATOM    591  C4'   G A  28     -25.132   8.476  13.293  1.00  0.00     0.180 C 
ATOM    592  C3'   G A  28     -25.721   7.818  12.056  1.00  0.00     0.198 C 
ATOM    593  O4'   G A  28     -24.125   7.523  13.719  1.00  0.00    -0.353 OA
ATOM    594  C2'   G A  28     -24.483   7.240  11.379  1.00  0.00     0.199 C 
ATOM    595  C1'   G A  28     -23.642   6.817  12.587  1.00  0.00     0.262 C 
ATOM    596  N9    G A  28     -23.705   5.386  12.869  1.00  0.00    -0.293 N 
ATOM    597  C8    G A  28     -24.249   4.776  13.972  1.00  0.00     0.214 A 
ATOM    598  C4    G A  28     -23.223   4.376  12.068  1.00  0.00     0.187 A 
ATOM    599  N7    G A  28     -24.149   3.475  13.945  1.00  0.00    -0.234 NA
ATOM    600  C5    G A  28     -23.502   3.208  12.745  1.00  0.00     0.173 A 
ATOM    601  C6    G A  28     -23.116   1.972  12.161  1.00  0.00     0.292 A 
ATOM    602  O6    G A  28     -23.271   0.828  12.602  1.00  0.00    -0.265 OA
ATOM    603  N1    G A  28     -22.488   2.160  10.935  1.00  0.00    -0.153 N 
ATOM    604  C2    G A  28     -22.259   3.376  10.346  1.00  0.00     0.703 A 
ATOM    605  H1    G A  28     -22.180   1.336  10.444  1.00  0.00     0.187 HD
ATOM    606  N3    G A  28     -22.609   4.534  10.877  1.00  0.00    -0.044 NA
ATOM    607  O2'   A A  27     -23.374   8.654  16.509  1.00  0.00    -0.388 OA
ATOM    608  C1'   A A  27     -22.428   6.656  17.427  1.00  0.00     0.262 C 
ATOM    609 'HO2   A A  27     -24.221   9.080  16.382  1.00  0.00     0.210 HD
ATOM    610  N9    A A  27     -22.189   5.265  17.041  1.00  0.00    -0.294 N 
ATOM    611  C4    A A  27     -21.565   4.842  15.894  1.00  0.00     0.167 A 
ATOM    612  C8    A A  27     -22.533   4.125  17.723  1.00  0.00     0.214 A 
ATOM    613  N3    A A  27     -21.055   5.607  14.912  1.00  0.00    -0.222 NA
ATOM    614  C5    A A  27     -21.566   3.459  15.952  1.00  0.00     0.149 A 
ATOM    615  C2    A A  27     -20.525   4.851  13.955  1.00  0.00     0.237 A 
ATOM    616  N1    A A  27     -20.452   3.515  13.873  1.00  0.00    -0.222 NA
ATOM    617  C6    A A  27     -20.973   2.776  14.875  1.00  0.00     0.155 A 
ATOM    618  N6    A A  27     -20.899   1.448  14.791  1.00  0.00    -0.382 N 
ATOM    619  H62   A A  27     -20.464   1.012  13.991  1.00  0.00     0.157 HD
ATOM    620  H61   A A  27     -21.284   0.877  15.531  1.00  0.00     0.157 HD
ATOM    621  N7    A A  27     -22.181   3.019  17.115  1.00  0.00    -0.236 NA
BRANCH 592 622
ATOM    622  O3'   G A  28     -26.406   8.757  11.231  1.00  0.00    -0.279 OA
BRANCH 622 623
ATOM    623  P     A A  29     -27.975   8.564  10.929  1.00  0.00     0.408 P 
ATOM    624  OP2   A A  29     -28.120   7.805   9.661  1.00  0.00    -0.624 OA
ATOM    625  OP1   A A  29     -28.600   8.043  12.172  1.00  0.00    -0.624 OA
BRANCH 623 626
ATOM    626  O5'   A A  29     -28.508  10.047  10.690  1.00  0.00    -0.287 OA
BRANCH 626 627
ATOM    627  C5'   A A  29     -27.694  11.177  10.999  1.00  0.00     0.216 C 
BRANCH 627 628
ATOM    628  C4'   A A  29     -27.742  11.467  12.482  1.00  0.00     0.180 C 
ATOM    629  C3'   A A  29     -28.622  12.635  12.903  1.00  0.00     0.198 C 
ATOM    630  O3'   A A  29     -29.991  12.256  13.006  1.00  0.00    -0.279 OA
ATOM    631  C2'   A A  29     -28.022  13.023  14.250  1.00  0.00     0.199 C 
ATOM    632  P     G A  30     -31.139  13.383  12.948  1.00  0.00     0.408 P 
ATOM    633  OP1   G A  30     -32.445  12.688  13.074  1.00  0.00    -0.624 OA
ATOM    634  O5'   G A  30     -30.906  14.242  14.271  1.00  0.00    -0.287 OA
ATOM    635  OP2   G A  30     -30.882  14.254  11.773  1.00  0.00    -0.624 OA
ATOM    636  C5'   G A  30     -31.059  13.657  15.564  1.00  0.00     0.216 C 
ATOM    637  C4'   G A  30     -31.047  14.729  16.628  1.00  0.00     0.180 C 
ATOM    638  C3'   G A  30     -32.106  15.821  16.466  1.00  0.00     0.198 C 
ATOM    639  O4'   G A  30     -29.761  15.411  16.585  1.00  0.00    -0.353 OA
ATOM    640  O3'   G A  30     -32.681  16.179  17.722  1.00  0.00    -0.279 OA
ATOM    641  C2'   G A  30     -31.330  16.978  15.842  1.00  0.00     0.199 C 
ATOM    642  P     G A  31     -33.814  15.245  18.381  1.00  0.00     0.408 P 
ATOM    643  OP1   G A  31     -34.346  14.357  17.316  1.00  0.00    -0.624 OA
ATOM    644  OP2   G A  31     -34.746  16.122  19.136  1.00  0.00    -0.624 OA
ATOM    645  O5'   G A  31     -33.015  14.339  19.422  1.00  0.00    -0.287 OA
ATOM    646  C5'   G A  31     -32.780  14.776  20.760  1.00  0.00     0.216 C 
ATOM    647  C4'   G A  31     -33.067  13.656  21.732  1.00  0.00     0.180 C 
ATOM    648  C3'   G A  31     -33.148  14.063  23.198  1.00  0.00     0.198 C 
ATOM    649  O4'   G A  31     -31.975  12.696  21.682  1.00  0.00    -0.353 OA
ATOM    650  O3'   G A  31     -34.451  14.521  23.547  1.00  0.00    -0.279 OA
ATOM    651  C2'   G A  31     -32.775  12.773  23.917  1.00  0.00     0.199 C 
ATOM    652  P     G A  32     -34.652  15.437  24.855  1.00  0.00     0.408 P 
ATOM    653  OP1   G A  32     -36.105  15.708  24.985  1.00  0.00    -0.624 OA
ATOM    654  O5'   G A  32     -34.214  14.491  26.061  1.00  0.00    -0.287 OA
ATOM    655  OP2   G A  32     -33.697  16.572  24.781  1.00  0.00    -0.624 OA
ATOM    656  C5'   G A  32     -34.965  13.324  26.391  1.00  0.00     0.216 C 
ATOM    657  C4'   G A  32     -34.675  12.900  27.813  1.00  0.00     0.180 C 
ATOM    658  C3'   G A  32     -34.428  14.032  28.798  1.00  0.00     0.198 C 
ATOM    659  O4'   G A  32     -33.443  12.133  27.837  1.00  0.00    -0.353 OA
ATOM    660  C2'   G A  32     -33.594  13.353  29.879  1.00  0.00     0.199 C 
ATOM    661  O3'   G A  32     -35.654  14.562  29.298  1.00  0.00    -0.279 OA
ATOM    662  O2'   G A  32     -34.406  12.598  30.759  1.00  0.00    -0.388 OA
ATOM    663  C1'   G A  32     -32.750  12.385  29.047  1.00  0.00     0.262 C 
ATOM    664 'HO2   G A  32     -34.753  13.208  31.411  1.00  0.00     0.210 HD
ATOM    665  N9    G A  32     -31.423  12.897  28.718  1.00  0.00    -0.293 N 
ATOM    666  C4    G A  32     -30.300  12.828  29.508  1.00  0.00     0.187 A 
ATOM    667  C8    G A  32     -31.044  13.539  27.565  1.00  0.00     0.214 A 
ATOM    668  N3    G A  32     -30.229  12.273  30.736  1.00  0.00    -0.044 NA
ATOM    669  C5    G A  32     -29.301  13.433  28.777  1.00  0.00     0.173 A 
ATOM    670  C2    G A  32     -29.013  12.359  31.245  1.00  0.00     0.703 A 
ATOM    671  N2    G A  32     -28.768  11.862  32.461  1.00  0.00    -0.233 N 
ATOM    672  N1    G A  32     -27.951  12.940  30.602  1.00  0.00    -0.153 N 
ATOM    673  H21   G A  32     -29.518  11.425  32.975  1.00  0.00     0.174 HD
ATOM    674  H22   G A  32     -27.845  11.923  32.863  1.00  0.00     0.174 HD
ATOM    675  C6    G A  32     -27.999  13.515  29.339  1.00  0.00     0.292 A 
ATOM    676  H1    G A  32     -27.061  12.954  31.078  1.00  0.00     0.187 HD
ATOM    677  O6    G A  32     -26.979  14.009  28.849  1.00  0.00    -0.265 OA
ATOM    678  N7    G A  32     -29.784  13.878  27.555  1.00  0.00    -0.234 NA
ATOM    679  P     T A  33     -35.648  15.929  30.143  1.00  0.00     0.408 P 
ATOM    680  OP1   T A  33     -37.054  16.398  30.232  1.00  0.00    -0.624 OA
ATOM    681  O5'   T A  33     -35.186  15.479  31.601  1.00  0.00    -0.287 OA
ATOM    682  OP2   T A  33     -34.610  16.830  29.577  1.00  0.00    -0.624 OA
ATOM    683  C5'   T A  33     -34.125  16.147  32.280  1.00  0.00     0.216 C 
ATOM    684  C4'   T A  33     -33.597  15.282  33.398  1.00  0.00     0.180 C 
ATOM    685  C3'   T A  33     -32.859  16.027  34.504  1.00  0.00     0.198 C 
ATOM    686  O4'   T A  33     -32.618  14.357  32.850  1.00  0.00    -0.353 OA
ATOM    687  O3'   T A  33     -33.753  16.479  35.517  1.00  0.00    -0.279 OA
ATOM    688  C2'   T A  33     -31.883  14.975  35.016  1.00  0.00     0.199 C 
ATOM    689  P     T A  34     -33.898  18.054  35.815  1.00  0.00     0.408 P 
ATOM    690  OP1   T A  34     -35.258  18.275  36.368  1.00  0.00    -0.624 OA
ATOM    691  O5'   T A  34     -32.842  18.325  36.977  1.00  0.00    -0.287 OA
ATOM    692  OP2   T A  34     -33.465  18.810  34.611  1.00  0.00    -0.624 OA
ATOM    693  C5'   T A  34     -32.995  17.730  38.264  1.00  0.00     0.216 C 
ATOM    694  C4'   T A  34     -31.642  17.457  38.878  1.00  0.00     0.180 C 
ATOM    695  O4'   T A  34     -30.856  16.657  37.953  1.00  0.00    -0.353 OA
ATOM    696  C3'   T A  34     -30.787  18.689  39.145  1.00  0.00     0.198 C 
ATOM    697  C1'   T A  34     -29.508  17.094  37.968  1.00  0.00     0.264 C 
ATOM    698  C2'   T A  34     -29.372  18.127  39.087  1.00  0.00     0.199 C 
ATOM    699  N1    T A  34     -29.176  17.620  36.636  1.00  0.00    -0.280 N 
ATOM    700  C6    T A  34     -30.160  17.956  35.736  1.00  0.00     0.104 A 
ATOM    701  C2    T A  34     -27.838  17.766  36.316  1.00  0.00     0.331 A 
ATOM    702  C5    T A  34     -29.884  18.436  34.519  1.00  0.00     0.092 A 
ATOM    703  C4    T A  34     -28.525  18.618  34.114  1.00  0.00     0.250 A 
ATOM    704  O4    T A  34     -28.148  19.053  33.028  1.00  0.00    -0.268 OA
ATOM    705  N3    T A  34     -27.593  18.263  35.061  1.00  0.00    -0.275 N 
ATOM    706  H3    T A  34     -26.624  18.383  34.809  1.00  0.00     0.173 HD
ATOM    707  O2    T A  34     -26.937  17.481  37.084  1.00  0.00    -0.246 OA
ATOM    708  C1'   T A  33     -31.499  14.275  33.713  1.00  0.00     0.264 C 
ATOM    709  O2'   T A  33     -32.531  14.043  35.860  1.00  0.00    -0.388 OA
ATOM    710  N1    T A  33     -30.342  14.876  33.032  1.00  0.00    -0.280 N 
ATOM    711  C6    T A  33     -30.462  15.443  31.782  1.00  0.00     0.104 A 
ATOM    712  C2    T A  33     -29.126  14.859  33.690  1.00  0.00     0.331 A 
ATOM    713  C5    T A  33     -29.426  15.997  31.146  1.00  0.00     0.092 A 
ATOM    714  C4    T A  33     -28.137  16.018  31.761  1.00  0.00     0.250 A 
ATOM    715  O4    T A  33     -27.109  16.487  31.274  1.00  0.00    -0.268 OA
ATOM    716  N3    T A  33     -28.088  15.438  33.007  1.00  0.00    -0.275 N 
ATOM    717  H3    T A  33     -27.194  15.443  33.473  1.00  0.00     0.173 HD
ATOM    718  O2    T A  33     -28.976  14.367  34.793  1.00  0.00    -0.246 OA
ATOM    719 'HO2   T A  33     -33.168  14.535  36.378  1.00  0.00     0.210 HD
ATOM    720  C1'   G A  31     -31.696  12.218  22.988  1.00  0.00     0.262 C 
ATOM    721  O2'   G A  31     -33.864  11.869  23.941  1.00  0.00    -0.388 OA
ATOM    722  N9    G A  31     -30.343  12.629  23.350  1.00  0.00    -0.293 N 
ATOM    723  C4    G A  31     -29.631  12.218  24.451  1.00  0.00     0.187 A 
ATOM    724  C8    G A  31     -29.530  13.501  22.667  1.00  0.00     0.214 A 
ATOM    725  N3    G A  31     -30.058  11.354  25.395  1.00  0.00    -0.044 NA
ATOM    726  C5    G A  31     -28.418  12.871  24.368  1.00  0.00     0.173 A 
ATOM    727  C2    G A  31     -29.148  11.156  26.331  1.00  0.00     0.703 A 
ATOM    728  N2    G A  31     -29.411  10.329  27.347  1.00  0.00    -0.233 N 
ATOM    729  N1    G A  31     -27.914  11.754  26.341  1.00  0.00    -0.153 N 
ATOM    730  H21   G A  31     -30.307   9.866  27.382  1.00  0.00     0.174 HD
ATOM    731  H22   G A  31     -28.726  10.169  28.069  1.00  0.00     0.174 HD
ATOM    732  C6    G A  31     -27.450  12.644  25.380  1.00  0.00     0.292 A 
ATOM    733  H1    G A  31     -27.288  11.539  27.101  1.00  0.00     0.187 HD
ATOM    734  O6    G A  31     -26.316  13.125  25.485  1.00  0.00    -0.265 OA
ATOM    735  N7    G A  31     -28.370  13.677  23.238  1.00  0.00    -0.234 NA
ATOM    736 'HO2   G A  31     -34.654  12.391  23.803  1.00  0.00     0.210 HD
ATOM    737  O2'   G A  30     -31.872  18.227  16.229  1.00  0.00    -0.388 OA
ATOM    738  C1'   G A  30     -29.970  16.803  16.506  1.00  0.00     0.262 C 
ATOM    739 'HO2   G A  30     -32.314  18.087  17.067  1.00  0.00     0.210 HD
ATOM    740  N9    G A  30     -28.856  17.400  15.777  1.00  0.00    -0.293 N 
ATOM    741  C8    G A  30     -28.430  17.090  14.509  1.00  0.00     0.214 A 
ATOM    742  C4    G A  30     -28.023  18.393  16.233  1.00  0.00     0.187 A 
ATOM    743  N7    G A  30     -27.404  17.800  14.123  1.00  0.00    -0.234 NA
ATOM    744  C5    G A  30     -27.136  18.628  15.204  1.00  0.00     0.173 A 
ATOM    745  C6    G A  30     -26.136  19.620  15.378  1.00  0.00     0.292 A 
ATOM    746  N1    G A  30     -26.225  20.221  16.629  1.00  0.00    -0.153 N 
ATOM    747  O6    G A  30     -25.259  19.979  14.587  1.00  0.00    -0.265 OA
ATOM    748  C2    G A  30     -27.153  19.909  17.589  1.00  0.00     0.703 A 
ATOM    749  H1    G A  30     -25.552  20.941  16.842  1.00  0.00     0.187 HD
ATOM    750  N2    G A  30     -27.074  20.597  18.731  1.00  0.00    -0.233 N 
ATOM    751  N3    G A  30     -28.088  18.990  17.441  1.00  0.00    -0.044 NA
ATOM    752  H21   G A  30     -27.737  20.402  19.468  1.00  0.00     0.174 HD
ATOM    753  H22   G A  30     -26.363  21.300  18.859  1.00  0.00     0.174 HD
ATOM    754  O2'   A A  29     -28.450  12.140  15.271  1.00  0.00    -0.388 OA
ATOM    755  C1'   A A  29     -26.532  12.787  13.995  1.00  0.00     0.262 C 
ATOM    756 'HO2   A A  29     -29.209  11.667  14.926  1.00  0.00     0.210 HD
ATOM    757  O4'   A A  29     -26.417  11.850  12.938  1.00  0.00    -0.353 OA
BRANCH 698 758
ATOM    758  O2'   T A  34     -29.037  17.455  40.288  1.00  0.00    -0.388 OA
ATOM    759 'HO2   T A  34     -29.085  18.104  40.991  1.00  0.00     0.210 HD
ENDBRANCH 698 758
BRANCH 696 760
ATOM    760  O3'   T A  34     -31.090  19.270  40.412  1.00  0.00    -0.279 OA
BRANCH 760 761
ATOM    761  P     C A  35     -31.925  18.431  41.504  1.00  0.00     0.408 P 
ATOM    762  OP1   C A  35     -33.363  18.584  41.168  1.00  0.00    -0.624 OA
ATOM    763  OP2   C A  35     -31.448  18.786  42.865  1.00  0.00    -0.624 OA
BRANCH 761 764
ATOM    764  O5'   C A  35     -31.512  16.917  41.222  1.00  0.00    -0.287 OA
BRANCH 764 765
ATOM    765  C5'   C A  35     -31.905  15.869  42.106  1.00  0.00     0.216 C 
BRANCH 765 766
ATOM    766  C4'   C A  35     -32.849  14.920  41.404  1.00  0.00     0.180 C 
ATOM    767  O4'   C A  35     -32.510  14.887  39.990  1.00  0.00    -0.353 OA
ATOM    768  C1'   C A  35     -32.574  13.554  39.511  1.00  0.00     0.264 C 
ATOM    769  N1    C A  35     -31.215  13.127  39.137  1.00  0.00    -0.278 N 
ATOM    770  C2'   C A  35     -33.205  12.705  40.614  1.00  0.00     0.199 C 
ATOM    771  C6    C A  35     -30.116  13.711  39.703  1.00  0.00     0.102 A 
ATOM    772  C2    C A  35     -31.064  12.111  38.189  1.00  0.00     0.352 A 
ATOM    773  C5    C A  35     -28.879  13.327  39.366  1.00  0.00     0.067 A 
ATOM    774  C4    C A  35     -28.755  12.290  38.396  1.00  0.00     0.128 A 
ATOM    775  N4    C A  35     -27.550  11.866  38.018  1.00  0.00    -0.384 N 
ATOM    776  N3    C A  35     -29.821  11.715  37.838  1.00  0.00    -0.177 NA
ATOM    777  H41   C A  35     -26.717  12.275  38.416  1.00  0.00     0.157 HD
ATOM    778  H42   C A  35     -27.478  11.132  37.329  1.00  0.00     0.157 HD
ATOM    779  O2    C A  35     -32.076  11.598  37.692  1.00  0.00    -0.244 OA
ATOM    780  C3'   C A  35     -32.772  13.469  41.859  1.00  0.00     0.198 C 
ATOM    781  O2'   C A  35     -34.612  12.731  40.459  1.00  0.00    -0.388 OA
ATOM    782  O3'   C A  35     -33.631  13.222  42.970  1.00  0.00    -0.279 OA
ATOM    783  P     A A  36     -33.037  12.559  44.309  1.00  0.00     0.408 P 
ATOM    784  OP2   A A  36     -32.071  13.514  44.909  1.00  0.00    -0.624 OA
ATOM    785  O5'   A A  36     -32.222  11.291  43.787  1.00  0.00    -0.287 OA
ATOM    786  OP1   A A  36     -34.191  12.082  45.112  1.00  0.00    -0.624 OA
ATOM    787  C5'   A A  36     -32.540   9.971  44.230  1.00  0.00     0.216 C 
ATOM    788  C4'   A A  36     -33.447   9.286  43.232  1.00  0.00     0.180 C 
ATOM    789  C3'   A A  36     -33.100   7.828  42.937  1.00  0.00     0.198 C 
ATOM    790  O4'   A A  36     -33.346   9.978  41.954  1.00  0.00    -0.353 OA
ATOM    791  O3'   A A  36     -33.844   6.936  43.764  1.00  0.00    -0.279 OA
ATOM    792  C2'   A A  36     -33.458   7.679  41.465  1.00  0.00     0.199 C 
ATOM    793  P     A A  37     -33.083   6.027  44.850  1.00  0.00     0.408 P 
ATOM    794  OP2   A A  37     -31.889   6.766  45.334  1.00  0.00    -0.624 OA
ATOM    795  OP1   A A  37     -34.105   5.568  45.827  1.00  0.00    -0.624 OA
ATOM    796  O5'   A A  37     -32.585   4.763  44.017  1.00  0.00    -0.287 OA
ATOM    797  O2'   A A  36     -34.852   7.513  41.288  1.00  0.00    -0.388 OA
ATOM    798  C1'   A A  36     -33.054   9.049  40.930  1.00  0.00     0.262 C 
ATOM    799 'HO2   A A  36     -35.211   7.288  42.147  1.00  0.00     0.210 HD
ATOM    800  N9    A A  36     -31.635   9.164  40.595  1.00  0.00    -0.294 N 
ATOM    801  C8    A A  36     -30.741  10.110  41.031  1.00  0.00     0.214 A 
ATOM    802  C4    A A  36     -30.923   8.327  39.770  1.00  0.00     0.167 A 
ATOM    803  N7    A A  36     -29.529   9.950  40.557  1.00  0.00    -0.236 NA
ATOM    804  C5    A A  36     -29.632   8.821  39.757  1.00  0.00     0.149 A 
ATOM    805  C6    A A  36     -28.693   8.129  38.973  1.00  0.00     0.155 A 
ATOM    806  N6    A A  36     -27.413   8.486  38.864  1.00  0.00    -0.382 N 
ATOM    807  N1    A A  36     -29.119   7.041  38.297  1.00  0.00    -0.222 NA
ATOM    808  H62   A A  36     -26.790   7.943  38.283  1.00  0.00     0.157 HD
ATOM    809  H61   A A  36     -27.074   9.296  39.362  1.00  0.00     0.157 HD
ATOM    810  C2    A A  36     -30.404   6.681  38.407  1.00  0.00     0.237 A 
ATOM    811  N3    A A  36     -31.380   7.249  39.110  1.00  0.00    -0.222 NA
ATOM    812 'HO2   C A  35     -34.982  12.337  41.249  1.00  0.00     0.210 HD
BRANCH 796 813
ATOM    813  C5'   A A  37     -33.401   3.598  43.893  1.00  0.00     0.216 C 
BRANCH 813 814
ATOM    814  C4'   A A  37     -32.593   2.450  43.327  1.00  0.00     0.180 C 
ATOM    815  O4'   A A  37     -32.157   2.786  41.985  1.00  0.00    -0.353 OA
ATOM    816  C1'   A A  37     -30.900   2.184  41.730  1.00  0.00     0.262 C 
ATOM    817  C2'   A A  37     -30.481   1.420  42.989  1.00  0.00     0.199 C 
ATOM    818  C3'   A A  37     -31.300   2.130  44.062  1.00  0.00     0.198 C 
BRANCH 816 819
ATOM    819  N9    A A  37     -29.955   3.232  41.344  1.00  0.00    -0.294 N 
ATOM    820  C8    A A  37     -30.043   4.581  41.579  1.00  0.00     0.214 A 
ATOM    821  N7    A A  37     -29.028   5.266  41.111  1.00  0.00    -0.236 NA
ATOM    822  C5    A A  37     -28.217   4.301  40.527  1.00  0.00     0.149 A 
ATOM    823  C6    A A  37     -26.984   4.380  39.855  1.00  0.00     0.155 A 
ATOM    824  C4    A A  37     -28.777   3.044  40.663  1.00  0.00     0.167 A 
ATOM    825  N6    A A  37     -26.323   5.520  39.650  1.00  0.00    -0.382 N 
ATOM    826  N1    A A  37     -26.446   3.231  39.395  1.00  0.00    -0.222 NA
ATOM    827  H61   A A  37     -26.709   6.390  39.987  1.00  0.00     0.157 HD
ATOM    828  H62   A A  37     -25.440   5.502  39.165  1.00  0.00     0.157 HD
ATOM    829  C2    A A  37     -27.107   2.085  39.602  1.00  0.00     0.237 A 
ATOM    830  N3    A A  37     -28.269   1.883  40.219  1.00  0.00    -0.222 NA
ENDBRANCH 816 819
BRANCH 817 831
ATOM    831  O2'   A A  37     -30.877   0.068  42.847  1.00  0.00    -0.388 OA
ATOM    832 'HO2   A A  37     -31.064  -0.075  41.918  1.00  0.00     0.210 HD
ENDBRANCH 817 831
BRANCH 818 833
ATOM    833  O3'   A A  37     -31.541   1.309  45.203  1.00  0.00    -0.279 OA
BRANCH 833 834
ATOM    834  P     A A  38     -31.330   1.908  46.681  1.00  0.00     0.408 P 
ATOM    835  OP1   A A  38     -32.609   1.742  47.415  1.00  0.00    -0.624 OA
ATOM    836  OP2   A A  38     -30.730   3.262  46.549  1.00  0.00    -0.624 OA
BRANCH 834 837
ATOM    837  O5'   A A  38     -30.246   0.944  47.344  1.00  0.00    -0.287 OA
BRANCH 837 838
ATOM    838  C5'   A A  38     -29.014   1.459  47.851  1.00  0.00     0.216 C 
BRANCH 838 839
ATOM    839  C4'   A A  38     -27.985   0.355  47.942  1.00  0.00     0.180 C 
ATOM    840  C3'   A A  38     -26.545   0.828  48.130  1.00  0.00     0.198 C 
ATOM    841  C2'   A A  38     -25.730  -0.268  47.450  1.00  0.00     0.199 C 
ATOM    842  O2'   A A  38     -25.557  -1.406  48.272  1.00  0.00    -0.388 OA
ATOM    843  C1'   A A  38     -26.649  -0.650  46.291  1.00  0.00     0.262 C 
ATOM    844 'HO2   A A  38     -26.425  -1.777  48.444  1.00  0.00     0.210 HD
ATOM    845  O4'   A A  38     -27.980  -0.376  46.686  1.00  0.00    -0.353 OA
BRANCH 840 846
ATOM    846  O3'   A A  38     -26.158   1.021  49.499  1.00  0.00    -0.279 OA
ATOM    847  P     T A  39     -24.684   1.557  49.880  1.00  0.00     0.408 P 
ATOM    848  OP2   T A  39     -23.883   0.386  50.319  1.00  0.00    -0.624 OA
ATOM    849  OP1   T A  39     -24.162   2.436  48.803  1.00  0.00    -0.624 OA
ATOM    850  O5'   T A  39     -24.934   2.482  51.152  1.00  0.00    -0.287 OA
ATOM    851  C5'   T A  39     -26.202   3.103  51.373  1.00  0.00     0.216 C 
ATOM    852  C4'   T A  39     -26.012   4.486  51.950  1.00  0.00     0.180 C 
ATOM    853  O4'   T A  39     -25.660   4.358  53.359  1.00  0.00    -0.353 OA
ATOM    854  C3'   T A  39     -24.893   5.312  51.320  1.00  0.00     0.198 C 
ATOM    855  C1'   T A  39     -24.410   4.972  53.593  1.00  0.00     0.264 C 
ATOM    856  C2'   T A  39     -23.709   5.038  52.240  1.00  0.00     0.199 C 
ATOM    857  N1    T A  39     -23.689   4.204  54.619  1.00  0.00    -0.280 N 
ATOM    858  O2'   T A  39     -22.797   6.123  52.257  1.00  0.00    -0.388 OA
ATOM    859 'HO2   T A  39     -22.741   6.454  51.360  1.00  0.00     0.210 HD
ATOM    860  C2    T A  39     -23.689   2.820  54.530  1.00  0.00     0.331 A 
ATOM    861  C6    T A  39     -23.029   4.847  55.642  1.00  0.00     0.104 A 
ATOM    862  N3    T A  39     -23.000   2.176  55.526  1.00  0.00    -0.275 N 
ATOM    863  O2    T A  39     -24.253   2.209  53.643  1.00  0.00    -0.246 OA
ATOM    864  H3    T A  39     -22.988   1.169  55.481  1.00  0.00     0.173 HD
ATOM    865  C4    T A  39     -22.324   2.754  56.574  1.00  0.00     0.250 A 
ATOM    866  O4    T A  39     -21.757   2.035  57.397  1.00  0.00    -0.268 OA
ATOM    867  C5    T A  39     -22.366   4.183  56.594  1.00  0.00     0.092 A 
ATOM    868  O3'   T A  39     -25.245   6.693  51.276  1.00  0.00    -0.279 OA
ATOM    869  P     C A  40     -24.695   7.627  50.087  1.00  0.00     0.408 P 
ATOM    870  OP2   C A  40     -25.860   8.250  49.406  1.00  0.00    -0.624 OA
ATOM    871  O5'   C A  40     -24.007   6.616  49.064  1.00  0.00    -0.287 OA
ATOM    872  OP1   C A  40     -23.631   8.491  50.659  1.00  0.00    -0.624 OA
ATOM    873  C5'   C A  40     -23.582   7.057  47.774  1.00  0.00     0.216 C 
ATOM    874  C4'   C A  40     -22.991   5.907  46.994  1.00  0.00     0.180 C 
ATOM    875  O4'   C A  40     -23.963   4.824  46.959  1.00  0.00    -0.353 OA
ATOM    876  C3'   C A  40     -22.668   6.227  45.536  1.00  0.00     0.198 C 
ATOM    877  C1'   C A  40     -24.233   4.467  45.620  1.00  0.00     0.264 C 
ATOM    878  N1    C A  40     -25.521   5.071  45.232  1.00  0.00    -0.278 N 
ATOM    879  C2'   C A  40     -23.034   4.940  44.803  1.00  0.00     0.199 C 
ATOM    880  C6    C A  40     -26.341   5.629  46.174  1.00  0.00     0.102 A 
ATOM    881  C2    C A  40     -25.897   5.065  43.884  1.00  0.00     0.352 A 
ATOM    882  C5    C A  40     -27.513   6.179  45.831  1.00  0.00     0.067 A 
ATOM    883  C4    C A  40     -27.870   6.159  44.453  1.00  0.00     0.128 A 
ATOM    884  N3    C A  40     -27.078   5.619  43.525  1.00  0.00    -0.177 NA
ATOM    885  N4    C A  40     -29.023   6.691  44.051  1.00  0.00    -0.384 N 
ATOM    886  H41   C A  40     -29.652   7.112  44.721  1.00  0.00     0.157 HD
ATOM    887  H42   C A  40     -29.266   6.670  43.070  1.00  0.00     0.157 HD
ATOM    888  O2    C A  40     -25.139   4.553  43.049  1.00  0.00    -0.244 OA
ATOM    889  O2'   C A  40     -22.003   3.976  44.910  1.00  0.00    -0.388 OA
ATOM    890 'HO2   C A  40     -21.220   4.439  45.208  1.00  0.00     0.210 HD
ATOM    891  O3'   C A  40     -21.293   6.567  45.370  1.00  0.00    -0.279 OA
ATOM    892  P     C A  41     -20.881   8.085  45.034  1.00  0.00     0.408 P 
ATOM    893  O5'   C A  41     -21.619   8.390  43.655  1.00  0.00    -0.287 OA
ATOM    894  OP2   C A  41     -21.467   8.967  46.073  1.00  0.00    -0.624 OA
ATOM    895  OP1   C A  41     -19.415   8.108  44.791  1.00  0.00    -0.624 OA
ATOM    896  C5'   C A  41     -21.275   7.683  42.464  1.00  0.00     0.216 C 
ATOM    897  C4'   C A  41     -22.002   8.276  41.280  1.00  0.00     0.180 C 
ATOM    898  O4'   C A  41     -23.409   7.913  41.364  1.00  0.00    -0.353 OA
ATOM    899  C3'   C A  41     -21.998   9.798  41.206  1.00  0.00     0.198 C 
ATOM    900  C1'   C A  41     -24.211   9.026  41.008  1.00  0.00     0.264 C 
ATOM    901  N1    C A  41     -24.951   9.470  42.201  1.00  0.00    -0.278 N 
ATOM    902  C2'   C A  41     -23.279  10.090  40.435  1.00  0.00     0.199 C 
ATOM    903  C2    C A  41     -26.006  10.370  42.041  1.00  0.00     0.352 A 
ATOM    904  C6    C A  41     -24.614   9.018  43.446  1.00  0.00     0.102 A 
ATOM    905  N3    C A  41     -26.689  10.791  43.129  1.00  0.00    -0.177 NA
ATOM    906  O2    C A  41     -26.292  10.764  40.902  1.00  0.00    -0.244 OA
ATOM    907  C4    C A  41     -26.352  10.346  44.340  1.00  0.00     0.128 A 
ATOM    908  N4    C A  41     -27.054  10.789  45.382  1.00  0.00    -0.384 N 
ATOM    909  C5    C A  41     -25.281   9.426  44.535  1.00  0.00     0.067 A 
ATOM    910  H41   C A  41     -26.832  10.476  46.317  1.00  0.00     0.157 HD
ATOM    911  H42   C A  41     -27.813  11.440  45.234  1.00  0.00     0.157 HD
ATOM    912  O2'   C A  41     -23.110   9.852  39.050  1.00  0.00    -0.388 OA
ATOM    913 'HO2   C A  41     -22.167   9.841  38.883  1.00  0.00     0.210 HD
ATOM    914  O3'   C A  41     -20.837  10.290  40.543  1.00  0.00    -0.279 OA
ATOM    915  P     C A  42     -20.330  11.789  40.827  1.00  0.00     0.408 P 
ATOM    916  OP2   C A  42     -20.301  12.005  42.297  1.00  0.00    -0.624 OA
ATOM    917  O5'   C A  42     -21.479  12.708  40.214  1.00  0.00    -0.287 OA
ATOM    918  OP1   C A  42     -19.093  11.996  40.031  1.00  0.00    -0.624 OA
ATOM    919  C5'   C A  42     -21.747  12.711  38.812  1.00  0.00     0.216 C 
ATOM    920  C4'   C A  42     -22.763  13.779  38.477  1.00  0.00     0.180 C 
ATOM    921  O4'   C A  42     -24.063  13.370  38.982  1.00  0.00    -0.353 OA
ATOM    922  C3'   C A  42     -22.519  15.137  39.118  1.00  0.00     0.198 C 
ATOM    923  C1'   C A  42     -24.766  14.502  39.464  1.00  0.00     0.264 C 
ATOM    924  C2'   C A  42     -23.919  15.738  39.160  1.00  0.00     0.199 C 
BRANCH 923 925
ATOM    925  N1    C A  42     -25.034  14.306  40.899  1.00  0.00    -0.278 N 
ATOM    926  C6    C A  42     -24.175  13.583  41.681  1.00  0.00     0.102 A 
ATOM    927  C5    C A  42     -24.419  13.396  42.984  1.00  0.00     0.067 A 
ATOM    928  C4    C A  42     -25.602  13.982  43.520  1.00  0.00     0.128 A 
ATOM    929  N3    C A  42     -26.443  14.693  42.767  1.00  0.00    -0.177 NA
ATOM    930  N4    C A  42     -25.901  13.830  44.809  1.00  0.00    -0.384 N 
ATOM    931  C2    C A  42     -26.184  14.871  41.453  1.00  0.00     0.352 A 
ATOM    932  O2    C A  42     -26.946  15.524  40.724  1.00  0.00    -0.244 OA
ATOM    933  H42   C A  42     -26.744  14.249  45.175  1.00  0.00     0.157 HD
ATOM    934  H41   C A  42     -25.293  13.299  45.414  1.00  0.00     0.157 HD
ENDBRANCH 923 925
BRANCH 924 935
ATOM    935  O2'   C A  42     -24.295  16.244  37.892  1.00  0.00    -0.388 OA
ATOM    936 'HO2   C A  42     -23.844  17.082  37.787  1.00  0.00     0.210 HD
ENDBRANCH 924 935
BRANCH 922 937
ATOM    937  O3'   C A  42     -21.613  15.924  38.348  1.00  0.00    -0.279 OA
BRANCH 937 938
ATOM    938  P     G A  43     -20.216  16.394  38.991  1.00  0.00     0.408 P 
ATOM    939  OP2   G A  43     -19.954  15.575  40.202  1.00  0.00    -0.624 OA
ATOM    940  OP1   G A  43     -19.214  16.423  37.895  1.00  0.00    -0.624 OA
BRANCH 938 941
ATOM    941  O5'   G A  43     -20.487  17.895  39.453  1.00  0.00    -0.287 OA
BRANCH 941 942
ATOM    942  C5'   G A  43     -19.841  18.991  38.807  1.00  0.00     0.216 C 
BRANCH 942 943
ATOM    943  C4'   G A  43     -19.785  20.184  39.734  1.00  0.00     0.180 C 
ATOM    944  O4'   G A  43     -21.072  20.855  39.707  1.00  0.00    -0.353 OA
ATOM    945  C1'   G A  43     -21.392  21.331  41.002  1.00  0.00     0.262 C 
ATOM    946  C2'   G A  43     -20.207  21.034  41.920  1.00  0.00     0.199 C 
ATOM    947  C3'   G A  43     -19.549  19.859  41.202  1.00  0.00     0.198 C 
ATOM    948  O2'   G A  43     -19.354  22.164  41.940  1.00  0.00    -0.388 OA
ATOM    949  O3'   G A  43     -18.158  19.763  41.502  1.00  0.00    -0.279 OA
ATOM    950  P     G A  44     -17.474  18.319  41.690  1.00  0.00     0.408 P 
ATOM    951  OP2   G A  44     -18.387  17.460  42.487  1.00  0.00    -0.624 OA
ATOM    952  O5'   G A  44     -16.178  18.618  42.570  1.00  0.00    -0.287 OA
ATOM    953  OP1   G A  44     -17.021  17.864  40.351  1.00  0.00    -0.624 OA
ATOM    954  C5'   G A  44     -15.730  19.956  42.786  1.00  0.00     0.216 C 
ATOM    955  C4'   G A  44     -14.745  20.000  43.932  1.00  0.00     0.180 C 
ATOM    956  C3'   G A  44     -13.418  19.288  43.673  1.00  0.00     0.198 C 
ATOM    957  O4'   G A  44     -15.342  19.336  45.082  1.00  0.00    -0.353 OA
ATOM    958  C2'   G A  44     -13.584  17.949  44.385  1.00  0.00     0.199 C 
ATOM    959  C1'   G A  44     -14.460  18.350  45.568  1.00  0.00     0.262 C 
ATOM    960  N9    G A  44     -15.252  17.261  46.133  1.00  0.00    -0.293 N 
ATOM    961  C4    G A  44     -15.497  16.036  45.557  1.00  0.00     0.187 A 
ATOM    962  C8    G A  44     -15.896  17.251  47.346  1.00  0.00     0.214 A 
ATOM    963  N3    G A  44     -15.048  15.621  44.353  1.00  0.00    -0.044 NA
ATOM    964  C5    G A  44     -16.279  15.354  46.465  1.00  0.00     0.173 A 
ATOM    965  C2    G A  44     -15.448  14.394  44.075  1.00  0.00     0.703 A 
ATOM    966  N1    G A  44     -16.225  13.631  44.907  1.00  0.00    -0.153 N 
ATOM    967  N2    G A  44     -15.090  13.829  42.919  1.00  0.00    -0.233 N 
ATOM    968  C6    G A  44     -16.700  14.035  46.149  1.00  0.00     0.292 A 
ATOM    969  H1    G A  44     -16.474  12.704  44.599  1.00  0.00     0.187 HD
ATOM    970  O6    G A  44     -17.398  13.265  46.819  1.00  0.00    -0.265 OA
ATOM    971  H22   G A  44     -15.386  12.892  42.691  1.00  0.00     0.174 HD
ATOM    972  H21   G A  44     -14.516  14.354  42.274  1.00  0.00     0.174 HD
ATOM    973  N7    G A  44     -16.524  16.133  47.589  1.00  0.00    -0.234 NA
ATOM    974 'HO2   G A  43     -18.458  21.835  41.848  1.00  0.00     0.210 HD
BRANCH 945 975
ATOM    975  N9    G A  43     -22.636  20.699  41.430  1.00  0.00    -0.293 N 
ATOM    976  C4    G A  43     -23.588  20.135  40.616  1.00  0.00     0.187 A 
ATOM    977  N3    G A  43     -23.539  20.067  39.269  1.00  0.00    -0.044 NA
ATOM    978  C5    G A  43     -24.569  19.672  41.466  1.00  0.00     0.173 A 
ATOM    979  C2    G A  43     -24.603  19.466  38.768  1.00  0.00     0.703 A 
ATOM    980  N2    G A  43     -24.717  19.315  37.446  1.00  0.00    -0.233 N 
ATOM    981  N1    G A  43     -25.633  18.970  39.524  1.00  0.00    -0.153 N 
ATOM    982  H22   G A  43     -25.517  18.848  37.047  1.00  0.00     0.174 HD
ATOM    983  H21   G A  43     -23.981  19.668  36.851  1.00  0.00     0.174 HD
ATOM    984  C6    G A  43     -25.705  19.027  40.911  1.00  0.00     0.292 A 
ATOM    985  H1    G A  43     -26.401  18.527  39.042  1.00  0.00     0.187 HD
ATOM    986  O6    G A  43     -26.681  18.544  41.495  1.00  0.00    -0.265 OA
ATOM    987  N7    G A  43     -24.241  19.939  42.789  1.00  0.00    -0.234 NA
ATOM    988  C8    G A  43     -23.090  20.549  42.717  1.00  0.00     0.214 A 
ENDBRANCH 945 975
BRANCH 956 989
ATOM    989  O3'   G A  44     -12.318  20.035  44.187  1.00  0.00    -0.279 OA
BRANCH 989 990
ATOM    990  P     A A  45     -11.512  21.040  43.223  1.00  0.00     0.408 P 
ATOM    991  O5'   A A  45     -10.004  20.930  43.724  1.00  0.00    -0.287 OA
ATOM    992  C5'   A A  45      -8.976  21.737  43.150  1.00  0.00     0.216 C 
ATOM    993  C4'   A A  45      -7.675  20.968  43.097  1.00  0.00     0.180 C 
ATOM    994  O4'   A A  45      -6.788  21.487  44.128  1.00  0.00    -0.353 OA
ATOM    995  C3'   A A  45      -7.788  19.472  43.378  1.00  0.00     0.198 C 
ATOM    996  C1'   A A  45      -6.263  20.417  44.889  1.00  0.00     0.262 C 
ATOM    997  C2'   A A  45      -6.457  19.159  44.049  1.00  0.00     0.199 C 
ATOM    998  N9    A A  45      -6.958  20.383  46.176  1.00  0.00    -0.294 N 
ATOM    999  O2'   A A  45      -5.408  19.078  43.101  1.00  0.00    -0.388 OA
ATOM   1000 'HO2   A A  45      -5.817  18.946  42.244  1.00  0.00     0.210 HD
ATOM   1001  C4    A A  45      -6.569  19.698  47.302  1.00  0.00     0.167 A 
ATOM   1002  C8    A A  45      -8.126  21.021  46.510  1.00  0.00     0.214 A 
ATOM   1003  C5    A A  45      -7.534  19.964  48.256  1.00  0.00     0.149 A 
ATOM   1004  N3    A A  45      -5.479  18.926  47.453  1.00  0.00    -0.222 NA
ATOM   1005  N7    A A  45      -8.514  20.803  47.743  1.00  0.00    -0.236 NA
ATOM   1006  C6    A A  45      -7.365  19.371  49.518  1.00  0.00     0.155 A 
ATOM   1007  N6    A A  45      -8.217  19.532  50.531  1.00  0.00    -0.382 N 
ATOM   1008  N1    A A  45      -6.278  18.593  49.705  1.00  0.00    -0.222 NA
ATOM   1009  H62   A A  45      -8.049  19.083  51.421  1.00  0.00     0.157 HD
ATOM   1010  H61   A A  45      -9.037  20.108  50.406  1.00  0.00     0.157 HD
ATOM   1011  C2    A A  45      -5.427  18.424  48.685  1.00  0.00     0.237 A 
ATOM   1012  O3'   A A  45      -7.986  18.731  42.178  1.00  0.00    -0.279 OA
ATOM   1013  OP1   A A  45     -11.989  22.418  43.506  1.00  0.00    -0.624 OA
ATOM   1014  OP2   A A  45     -11.585  20.510  41.838  1.00  0.00    -0.624 OA
BRANCH 1012 1015
ATOM   1015  P     C A  46      -8.907  17.412  42.198  1.00  0.00     0.408 P 
ATOM   1016  OP1   C A  46      -9.933  17.600  43.255  1.00  0.00    -0.624 OA
ATOM   1017  OP2   C A  46      -8.025  16.218  42.237  1.00  0.00    -0.624 OA
BRANCH 1015 1018
ATOM   1018  O5'   C A  46      -9.643  17.438  40.784  1.00  0.00    -0.287 OA
BRANCH 1018 1019
ATOM   1019  C5'   C A  46      -9.395  18.487  39.849  1.00  0.00     0.216 C 
BRANCH 1019 1020
ATOM   1020  C4'   C A  46      -9.314  17.928  38.448  1.00  0.00     0.180 C 
ATOM   1021  O4'   C A  46     -10.286  16.855  38.301  1.00  0.00    -0.353 OA
ATOM   1022  C1'   C A  46     -10.825  16.878  36.989  1.00  0.00     0.264 C 
ATOM   1023  C2'   C A  46     -10.069  17.953  36.207  1.00  0.00     0.199 C 
ATOM   1024  C3'   C A  46      -9.667  18.898  37.330  1.00  0.00     0.198 C 
BRANCH 1022 1025
ATOM   1025  N1    C A  46     -12.274  17.123  37.081  1.00  0.00    -0.278 N 
ATOM   1026  C6    C A  46     -12.919  17.888  36.147  1.00  0.00     0.102 A 
ATOM   1027  C5    C A  46     -14.236  18.118  36.232  1.00  0.00     0.067 A 
ATOM   1028  C4    C A  46     -14.935  17.532  37.326  1.00  0.00     0.128 A 
ATOM   1029  N3    C A  46     -14.316  16.781  38.240  1.00  0.00    -0.177 NA
ATOM   1030  N4    C A  46     -16.245  17.726  37.465  1.00  0.00    -0.384 N 
ATOM   1031  C2    C A  46     -12.987  16.560  38.144  1.00  0.00     0.352 A 
ATOM   1032  O2    C A  46     -12.381  15.870  38.976  1.00  0.00    -0.244 OA
ATOM   1033  H42   C A  46     -16.734  17.303  38.243  1.00  0.00     0.157 HD
ATOM   1034  H41   C A  46     -16.750  18.289  36.796  1.00  0.00     0.157 HD
ENDBRANCH 1022 1025
BRANCH 1023 1035
ATOM   1035  O2'   C A  46      -8.934  17.363  35.605  1.00  0.00    -0.388 OA
ATOM   1036 'HO2   C A  46      -9.194  17.108  34.719  1.00  0.00     0.210 HD
ENDBRANCH 1023 1035
BRANCH 1024 1037
ATOM   1037  O3'   C A  46      -8.565  19.730  36.981  1.00  0.00    -0.279 OA
BRANCH 1037 1038
ATOM   1038  P     G A  47      -8.593  21.292  37.360  1.00  0.00     0.408 P 
ATOM   1039  OP2   G A  47      -9.813  21.563  38.162  1.00  0.00    -0.624 OA
ATOM   1040  OP1   G A  47      -7.260  21.634  37.918  1.00  0.00    -0.624 OA
BRANCH 1038 1041
ATOM   1041  O5'   G A  47      -8.745  22.028  35.955  1.00  0.00    -0.287 OA
BRANCH 1041 1042
ATOM   1042  C5'   G A  47      -8.994  23.431  35.888  1.00  0.00     0.216 C 
BRANCH 1042 1043
ATOM   1043  C4'   G A  47     -10.100  23.721  34.900  1.00  0.00     0.180 C 
ATOM   1044  O4'   G A  47      -9.643  23.423  33.554  1.00  0.00    -0.353 OA
ATOM   1045  C1'   G A  47     -10.745  23.010  32.762  1.00  0.00     0.262 C 
ATOM   1046  C2'   G A  47     -11.986  23.031  33.657  1.00  0.00     0.199 C 
ATOM   1047  N9    G A  47     -10.455  21.691  32.209  1.00  0.00    -0.293 N 
ATOM   1048  O2'   G A  47     -12.619  24.291  33.524  1.00  0.00    -0.388 OA
ATOM   1049  C3'   G A  47     -11.354  22.873  35.034  1.00  0.00     0.198 C 
ATOM   1050 'HO2   G A  47     -12.790  24.606  34.412  1.00  0.00     0.210 HD
ATOM   1051  O3'   G A  47     -12.202  23.332  36.083  1.00  0.00    -0.279 OA
ATOM   1052  P     A A  48     -13.278  22.328  36.735  1.00  0.00     0.408 P 
ATOM   1053  OP1   A A  48     -14.015  23.090  37.776  1.00  0.00    -0.624 OA
ATOM   1054  O5'   A A  48     -14.289  22.017  35.542  1.00  0.00    -0.287 OA
ATOM   1055  OP2   A A  48     -12.586  21.067  37.103  1.00  0.00    -0.624 OA
ATOM   1056  C5'   A A  48     -15.076  23.054  34.962  1.00  0.00     0.216 C 
ATOM   1057  C4'   A A  48     -15.823  22.534  33.754  1.00  0.00     0.180 C 
ATOM   1058  O4'   A A  48     -14.884  22.037  32.767  1.00  0.00    -0.353 OA
ATOM   1059  C3'   A A  48     -16.727  21.336  33.993  1.00  0.00     0.198 C 
ATOM   1060  C1'   A A  48     -15.515  21.034  31.986  1.00  0.00     0.262 C 
ATOM   1061  N9    A A  48     -14.669  19.842  31.983  1.00  0.00    -0.294 N 
ATOM   1062  C2'   A A  48     -16.904  20.791  32.580  1.00  0.00     0.199 C 
ATOM   1063  C8    A A  48     -13.546  19.592  32.732  1.00  0.00     0.214 A 
ATOM   1064  C4    A A  48     -14.857  18.722  31.205  1.00  0.00     0.167 A 
ATOM   1065  N7    A A  48     -13.005  18.420  32.501  1.00  0.00    -0.236 NA
ATOM   1066  C5    A A  48     -13.829  17.858  31.534  1.00  0.00     0.149 A 
ATOM   1067  C6    A A  48     -13.797  16.621  30.865  1.00  0.00     0.155 A 
ATOM   1068  N6    A A  48     -12.867  15.689  31.073  1.00  0.00    -0.382 N 
ATOM   1069  N1    A A  48     -14.768  16.371  29.959  1.00  0.00    -0.222 NA
ATOM   1070  H61   A A  48     -12.132  15.856  31.744  1.00  0.00     0.157 HD
ATOM   1071  H62   A A  48     -12.898  14.817  30.563  1.00  0.00     0.157 HD
ATOM   1072  C2    A A  48     -15.701  17.309  29.746  1.00  0.00     0.237 A 
ATOM   1073  N3    A A  48     -15.835  18.508  30.311  1.00  0.00    -0.222 NA
ATOM   1074  O2'   A A  48     -17.845  21.557  31.852  1.00  0.00    -0.388 OA
ATOM   1075 'HO2   A A  48     -18.368  22.035  32.495  1.00  0.00     0.210 HD
ATOM   1076  O3'   A A  48     -17.963  21.710  34.596  1.00  0.00    -0.279 OA
ATOM   1077  P     G A  49     -18.834  20.609  35.382  1.00  0.00     0.408 P 
ATOM   1078  OP1   G A  49     -19.893  21.337  36.128  1.00  0.00    -0.624 OA
ATOM   1079  OP2   G A  49     -17.911  19.704  36.115  1.00  0.00    -0.624 OA
ATOM   1080  O5'   G A  49     -19.535  19.770  34.222  1.00  0.00    -0.287 OA
ATOM   1081  C5'   G A  49     -20.428  20.397  33.303  1.00  0.00     0.216 C 
ATOM   1082  C4'   G A  49     -20.992  19.378  32.341  1.00  0.00     0.180 C 
ATOM   1083  O4'   G A  49     -19.944  18.930  31.441  1.00  0.00    -0.353 OA
ATOM   1084  C3'   G A  49     -21.501  18.085  32.961  1.00  0.00     0.198 C 
ATOM   1085  C1'   G A  49     -20.174  17.576  31.083  1.00  0.00     0.262 C 
ATOM   1086  C2'   G A  49     -21.466  17.134  31.773  1.00  0.00     0.199 C 
ATOM   1087  N9    G A  49     -19.011  16.787  31.477  1.00  0.00    -0.293 N 
ATOM   1088  O2'   G A  49     -22.553  17.371  30.898  1.00  0.00    -0.388 OA
ATOM   1089 'HO2   G A  49     -23.207  17.858  31.400  1.00  0.00     0.210 HD
ATOM   1090  C8    G A  49     -18.036  17.134  32.380  1.00  0.00     0.214 A 
ATOM   1091  C4    G A  49     -18.682  15.537  31.014  1.00  0.00     0.187 A 
ATOM   1092  N7    G A  49     -17.121  16.215  32.528  1.00  0.00    -0.234 NA
ATOM   1093  C5    G A  49     -17.517  15.197  31.671  1.00  0.00     0.173 A 
ATOM   1094  C6    G A  49     -16.923  13.938  31.398  1.00  0.00     0.292 A 
ATOM   1095  O6    G A  49     -15.890  13.452  31.874  1.00  0.00    -0.265 OA
ATOM   1096  N1    G A  49     -17.659  13.217  30.466  1.00  0.00    -0.153 N 
ATOM   1097  H1    G A  49     -17.316  12.305  30.209  1.00  0.00     0.187 HD
ATOM   1098  C2    G A  49     -18.815  13.651  29.868  1.00  0.00     0.703 A 
ATOM   1099  N3    G A  49     -19.378  14.819  30.109  1.00  0.00    -0.044 NA
ATOM   1100  N2    G A  49     -19.377  12.811  28.996  1.00  0.00    -0.233 N 
ATOM   1101  H21   G A  49     -20.230  13.081  28.528  1.00  0.00     0.174 HD
ATOM   1102  H22   G A  49     -18.954  11.913  28.808  1.00  0.00     0.174 HD
ATOM   1103  O3'   G A  49     -22.809  18.231  33.507  1.00  0.00    -0.279 OA
ATOM   1104  P     C A  50     -23.300  17.239  34.675  1.00  0.00     0.408 P 
ATOM   1105  OP1   C A  50     -24.720  17.564  34.963  1.00  0.00    -0.624 OA
ATOM   1106  OP2   C A  50     -22.301  17.277  35.774  1.00  0.00    -0.624 OA
ATOM   1107  O5'   C A  50     -23.245  15.794  34.005  1.00  0.00    -0.287 OA
ATOM   1108  C5'   C A  50     -24.130  15.447  32.940  1.00  0.00     0.216 C 
ATOM   1109  C4'   C A  50     -23.739  14.112  32.348  1.00  0.00     0.180 C 
ATOM   1110  O4'   C A  50     -22.358  14.156  31.906  1.00  0.00    -0.353 OA
ATOM   1111  C3'   C A  50     -23.756  12.928  33.302  1.00  0.00     0.198 C 
ATOM   1112  C1'   C A  50     -21.799  12.855  31.981  1.00  0.00     0.264 C 
ATOM   1113  N1    C A  50     -20.561  12.915  32.777  1.00  0.00    -0.278 N 
ATOM   1114  C2'   C A  50     -22.860  11.929  32.580  1.00  0.00     0.199 C 
ATOM   1115  C6    C A  50     -20.253  14.023  33.518  1.00  0.00     0.102 A 
ATOM   1116  C2    C A  50     -19.701  11.815  32.765  1.00  0.00     0.352 A 
ATOM   1117  C5    C A  50     -19.127  14.079  34.241  1.00  0.00     0.067 A 
ATOM   1118  C4    C A  50     -18.270  12.940  34.210  1.00  0.00     0.128 A 
ATOM   1119  N4    C A  50     -17.136  12.932  34.908  1.00  0.00    -0.384 N 
ATOM   1120  N3    C A  50     -18.564  11.855  33.492  1.00  0.00    -0.177 NA
ATOM   1121  H42   C A  50     -16.536  12.120  34.874  1.00  0.00     0.157 HD
ATOM   1122  H41   C A  50     -16.874  13.734  35.464  1.00  0.00     0.157 HD
ATOM   1123  O2    C A  50     -20.003  10.823  32.086  1.00  0.00    -0.244 OA
ATOM   1124  O2'   C A  50     -23.552  11.294  31.521  1.00  0.00    -0.388 OA
ATOM   1125 'HO2   C A  50     -24.481  11.493  31.641  1.00  0.00     0.210 HD
ATOM   1126  O3'   C A  50     -25.073  12.427  33.511  1.00  0.00    -0.279 OA
ATOM   1127  P     C A  51     -25.395  11.548  34.821  1.00  0.00     0.408 P 
ATOM   1128  OP1   C A  51     -26.845  11.232  34.797  1.00  0.00    -0.624 OA
ATOM   1129  OP2   C A  51     -24.813  12.236  36.002  1.00  0.00    -0.624 OA
ATOM   1130  O5'   C A  51     -24.586  10.196  34.587  1.00  0.00    -0.287 OA
ATOM   1131  C5'   C A  51     -24.870   9.353  33.472  1.00  0.00     0.216 C 
ATOM   1132  C4'   C A  51     -24.006   8.114  33.516  1.00  0.00     0.180 C 
ATOM   1133  O4'   C A  51     -22.631   8.477  33.228  1.00  0.00    -0.353 OA
ATOM   1134  C3'   C A  51     -23.921   7.415  34.864  1.00  0.00     0.198 C 
ATOM   1135  C1'   C A  51     -21.755   7.616  33.939  1.00  0.00     0.264 C 
ATOM   1136  N1    C A  51     -20.864   8.440  34.773  1.00  0.00    -0.278 N 
ATOM   1137  C2'   C A  51     -22.615   6.638  34.743  1.00  0.00     0.199 C 
ATOM   1138  C6    C A  51     -21.223   9.705  35.146  1.00  0.00     0.102 A 
ATOM   1139  C2    C A  51     -19.639   7.907  35.178  1.00  0.00     0.352 A 
ATOM   1140  C5    C A  51     -20.412  10.460  35.897  1.00  0.00     0.067 A 
ATOM   1141  C4    C A  51     -19.165   9.891  36.292  1.00  0.00     0.128 A 
ATOM   1142  N4    C A  51     -18.313  10.593  37.036  1.00  0.00    -0.384 N 
ATOM   1143  N3    C A  51     -18.810   8.656  35.937  1.00  0.00    -0.177 NA
ATOM   1144  H41   C A  51     -18.539  11.532  37.327  1.00  0.00     0.157 HD
ATOM   1145  H42   C A  51     -17.431  10.176  37.303  1.00  0.00     0.157 HD
ATOM   1146  O2    C A  51     -19.339   6.756  34.830  1.00  0.00    -0.244 OA
ATOM   1147  O2'   C A  51     -22.791   5.459  33.979  1.00  0.00    -0.388 OA
ATOM   1148 'HO2   C A  51     -23.697   5.463  33.669  1.00  0.00     0.210 HD
ATOM   1149  O3'   C A  51     -25.041   6.563  35.091  1.00  0.00    -0.279 OA
ATOM   1150  P     C A  52     -25.426   6.130  36.591  1.00  0.00     0.408 P 
ATOM   1151  OP1   C A  52     -26.741   5.444  36.533  1.00  0.00    -0.624 OA
ATOM   1152  OP2   C A  52     -25.249   7.305  37.483  1.00  0.00    -0.624 OA
ATOM   1153  O5'   C A  52     -24.321   5.048  36.978  1.00  0.00    -0.287 OA
ATOM   1154  C5'   C A  52     -24.145   3.865  36.198  1.00  0.00     0.216 C 
ATOM   1155  C4'   C A  52     -22.994   3.049  36.741  1.00  0.00     0.180 C 
ATOM   1156  O4'   C A  52     -21.746   3.694  36.377  1.00  0.00    -0.353 OA
ATOM   1157  C3'   C A  52     -22.932   2.932  38.257  1.00  0.00     0.182 C 
ATOM   1158  C1'   C A  52     -20.800   3.527  37.418  1.00  0.00     0.264 C 
ATOM   1159  N1    C A  52     -20.379   4.860  37.879  1.00  0.00    -0.278 N 
ATOM   1160  C2'   C A  52     -21.450   2.673  38.509  1.00  0.00     0.198 C 
ATOM   1161  C6    C A  52     -21.282   5.880  37.991  1.00  0.00     0.102 A 
ATOM   1162  C2    C A  52     -19.036   5.068  38.201  1.00  0.00     0.352 A 
ATOM   1163  C5    C A  52     -20.902   7.096  38.406  1.00  0.00     0.067 A 
ATOM   1164  C4    C A  52     -19.526   7.280  38.724  1.00  0.00     0.128 A 
ATOM   1165  N4    C A  52     -19.087   8.466  39.142  1.00  0.00    -0.384 N 
ATOM   1166  N3    C A  52     -18.639   6.290  38.621  1.00  0.00    -0.177 NA
ATOM   1167  H41   C A  52     -19.724   9.242  39.234  1.00  0.00     0.157 HD
ATOM   1168  H42   C A  52     -18.106   8.581  39.360  1.00  0.00     0.157 HD
ATOM   1169  O2    C A  52     -18.240   4.125  38.096  1.00  0.00    -0.244 OA
ATOM   1170  O2'   C A  52     -21.121   1.315  38.278  1.00  0.00    -0.388 OA
ATOM   1171 'HO2   C A  52     -21.905   0.800  38.474  1.00  0.00     0.210 HD
ATOM   1172  O3'   C A  52     -23.763   1.878  38.754  1.00  0.00    -0.390 OA
ATOM   1173 'HO3   C A  52     -24.626   1.983  38.348  1.00  0.00     0.210 HD
ATOM   1174  C4    G A  47     -11.114  21.084  31.168  1.00  0.00     0.187 A 
ATOM   1175  C8    G A  47      -9.488  20.808  32.621  1.00  0.00     0.214 A 
ATOM   1176  N3    G A  47     -12.143  21.605  30.469  1.00  0.00    -0.044 NA
ATOM   1177  C5    G A  47     -10.501  19.858  31.012  1.00  0.00     0.173 A 
ATOM   1178  C2    G A  47     -12.571  20.781  29.531  1.00  0.00     0.703 A 
ATOM   1179  N2    G A  47     -13.588  21.142  28.747  1.00  0.00    -0.233 N 
ATOM   1180  N1    G A  47     -12.033  19.543  29.293  1.00  0.00    -0.153 N 
ATOM   1181  H21   G A  47     -14.021  22.044  28.879  1.00  0.00     0.174 HD
ATOM   1182  H22   G A  47     -13.927  20.514  28.030  1.00  0.00     0.174 HD
ATOM   1183  C6    G A  47     -10.973  18.983  29.997  1.00  0.00     0.292 A 
ATOM   1184  H1    G A  47     -12.434  18.991  28.550  1.00  0.00     0.187 HD
ATOM   1185  O6    G A  47     -10.564  17.854  29.699  1.00  0.00    -0.265 OA
ATOM   1186  N7    G A  47      -9.475  19.699  31.934  1.00  0.00    -0.234 NA
ENDBRANCH 1042 1043
ENDBRANCH 1041 1042
ENDBRANCH 1038 1041
ENDBRANCH 1037 1038
ENDBRANCH 1024 1037
ENDBRANCH 1019 1020
ENDBRANCH 1018 1019
ENDBRANCH 1015 1018
ENDBRANCH 1012 1015
ENDBRANCH 989 990
ENDBRANCH 956 989
BRANCH 958 1187
ATOM   1187  O2'   G A  44     -12.345  17.476  44.879  1.00  0.00    -0.388 OA
ATOM   1188 'HO2   G A  44     -12.542  16.719  45.432  1.00  0.00     0.210 HD
ENDBRANCH 958 1187
ENDBRANCH 942 943
ENDBRANCH 941 942
ENDBRANCH 938 941
ENDBRANCH 937 938
ENDBRANCH 922 937
ENDBRANCH 840 846
BRANCH 843 1189
ATOM   1189  N9    A A  38     -26.375   0.087  45.057  1.00  0.00    -0.294 N 
ATOM   1190  C4    A A  38     -25.135   0.417  44.566  1.00  0.00     0.167 A 
ATOM   1191  N3    A A  38     -23.941   0.132  45.113  1.00  0.00    -0.222 NA
ATOM   1192  C5    A A  38     -25.365   1.106  43.390  1.00  0.00     0.149 A 
ATOM   1193  C2    A A  38     -22.954   0.610  44.359  1.00  0.00     0.237 A 
ATOM   1194  N1    A A  38     -23.020   1.289  43.208  1.00  0.00    -0.222 NA
ATOM   1195  C6    A A  38     -24.235   1.559  42.686  1.00  0.00     0.155 A 
ATOM   1196  N6    A A  38     -24.298   2.237  41.539  1.00  0.00    -0.382 N 
ATOM   1197  H62   A A  38     -23.445   2.533  41.089  1.00  0.00     0.157 HD
ATOM   1198  H61   A A  38     -25.195   2.450  41.129  1.00  0.00     0.157 HD
ATOM   1199  N7    A A  38     -26.727   1.210  43.141  1.00  0.00    -0.236 NA
ATOM   1200  C8    A A  38     -27.280   0.592  44.157  1.00  0.00     0.214 A 
ENDBRANCH 843 1189
ENDBRANCH 838 839
ENDBRANCH 837 838
ENDBRANCH 834 837
ENDBRANCH 833 834
ENDBRANCH 818 833
ENDBRANCH 813 814
ENDBRANCH 796 813
ENDBRANCH 765 766
ENDBRANCH 764 765
ENDBRANCH 761 764
ENDBRANCH 760 761
ENDBRANCH 696 760
BRANCH 755 1201
ATOM   1201  N9    A A  29     -25.804  13.999  13.620  1.00  0.00    -0.294 N 
ATOM   1202  C8    A A  29     -26.234  15.028  12.819  1.00  0.00     0.214 A 
ATOM   1203  N7    A A  29     -25.348  15.982  12.663  1.00  0.00    -0.236 NA
ATOM   1204  C5    A A  29     -24.262  15.552  13.415  1.00  0.00     0.149 A 
ATOM   1205  C4    A A  29     -24.530  14.334  14.010  1.00  0.00     0.167 A 
ATOM   1206  C6    A A  29     -23.000  16.120  13.663  1.00  0.00     0.155 A 
ATOM   1207  N3    A A  29     -23.708  13.627  14.805  1.00  0.00    -0.222 NA
ATOM   1208  C2    A A  29     -22.551  14.263  14.967  1.00  0.00     0.237 A 
ATOM   1209  N1    A A  29     -22.150  15.437  14.461  1.00  0.00    -0.222 NA
ATOM   1210  N6    A A  29     -22.599  17.285  13.155  1.00  0.00    -0.382 N 
ATOM   1211  H61   A A  29     -23.218  17.810  12.555  1.00  0.00     0.157 HD
ATOM   1212  H62   A A  29     -21.681  17.648  13.376  1.00  0.00     0.157 HD
ENDBRANCH 755 1201
ENDBRANCH 627 628
ENDBRANCH 626 627
ENDBRANCH 623 626
ENDBRANCH 622 623
ENDBRANCH 592 622
BRANCH 594 1213
ATOM   1213  O2'   G A  28     -23.778   8.240  10.666  1.00  0.00    -0.388 OA
ATOM   1214 'HO2   G A  28     -23.114   8.585  11.263  1.00  0.00     0.210 HD
ENDBRANCH 594 1213
BRANCH 604 1215
ATOM   1215  N2    G A  28     -21.643   3.350   9.162  1.00  0.00    -0.233 N 
ATOM   1216  H21   G A  28     -22.112   2.932   8.372  1.00  0.00     0.174 HD
ATOM   1217  H22   G A  28     -20.717   3.740   9.056  1.00  0.00     0.174 HD
ENDBRANCH 604 1215
ENDBRANCH 552 553
ENDBRANCH 549 552
ENDBRANCH 548 549
ENDBRANCH 544 548
BRANCH 545 1218
ATOM   1218  O2'   C A  25     -23.093  -2.416  21.922  1.00  0.00    -0.388 OA
ATOM   1219 'HO2   C A  25     -22.589  -1.620  21.749  1.00  0.00     0.210 HD
ENDBRANCH 545 1218
BRANCH 546 1220
ATOM   1220  N1    C A  25     -25.361  -4.324  19.769  1.00  0.00    -0.278 N 
ATOM   1221  C2    C A  25     -24.493  -4.906  18.843  1.00  0.00     0.352 A 
ATOM   1222  N3    C A  25     -24.984  -5.351  17.665  1.00  0.00    -0.177 NA
ATOM   1223  O2    C A  25     -23.291  -4.999  19.124  1.00  0.00    -0.244 OA
ATOM   1224  C4    C A  25     -26.286  -5.237  17.401  1.00  0.00     0.128 A 
ATOM   1225  C5    C A  25     -27.196  -4.653  18.328  1.00  0.00     0.067 A 
ATOM   1226  N4    C A  25     -26.723  -5.691  16.228  1.00  0.00    -0.384 N 
ATOM   1227  C6    C A  25     -26.694  -4.212  19.489  1.00  0.00     0.102 A 
ATOM   1228  H42   C A  25     -26.071  -6.103  15.575  1.00  0.00     0.157 HD
ATOM   1229  H41   C A  25     -27.702  -5.624  15.990  1.00  0.00     0.157 HD
ENDBRANCH 546 1220
ENDBRANCH 513 543
ENDBRANCH 367 368
ENDBRANCH 364 367
ENDBRANCH 363 364
ENDBRANCH 360 363
ENDBRANCH 346 347
ENDBRANCH 345 346
ENDBRANCH 342 345
ENDBRANCH 341 342
ENDBRANCH 317 341
ENDBRANCH 251 252
ENDBRANCH 250 251
ENDBRANCH 247 250
ENDBRANCH 246 247
ENDBRANCH 223 246
ENDBRANCH 206 207
ENDBRANCH 205 206
ENDBRANCH 202 205
ENDBRANCH 201 202
ENDBRANCH 179 201
BRANCH 197 1230
ATOM   1230  N9    G A   9     -32.534   5.645  27.408  1.00  0.00    -0.293 N 
ATOM   1231  C4    G A   9     -31.478   4.823  27.096  1.00  0.00     0.187 A 
ATOM   1232  N3    G A   9     -30.255   5.224  26.691  1.00  0.00    -0.044 NA
ATOM   1233  C5    G A   9     -31.943   3.539  27.286  1.00  0.00     0.173 A 
ATOM   1234  C2    G A   9     -29.452   4.202  26.464  1.00  0.00     0.703 A 
ATOM   1235  N1    G A   9     -29.815   2.889  26.622  1.00  0.00    -0.153 N 
ATOM   1236  C6    G A   9     -31.066   2.451  27.040  1.00  0.00     0.292 A 
ATOM   1237  H1    G A   9     -29.123   2.185  26.421  1.00  0.00     0.187 HD
ATOM   1238  O6    G A   9     -31.287   1.239  27.153  1.00  0.00    -0.265 OA
ATOM   1239  N7    G A   9     -33.266   3.552  27.710  1.00  0.00    -0.234 NA
ATOM   1240  C8    G A   9     -33.572   4.820  27.766  1.00  0.00     0.214 A 
BRANCH 1234 1241
ATOM   1241  N2    G A   9     -28.200   4.421  26.054  1.00  0.00    -0.233 N 
ATOM   1242  H21   G A   9     -27.793   5.337  26.174  1.00  0.00     0.174 HD
ATOM   1243  H22   G A   9     -27.668   3.677  25.623  1.00  0.00     0.174 HD
ENDBRANCH 1234 1241
ENDBRANCH 197 1230
ENDBRANCH 165 166
ENDBRANCH 162 165
ENDBRANCH 137 162
ENDBRANCH 113 117
BRANCH 114 1244
ATOM   1244  O2'   G A   6     -30.038  -0.617  34.305  1.00  0.00    -0.388 OA
ATOM   1245 'HO2   G A   6     -29.274  -0.041  34.274  1.00  0.00     0.210 HD
ENDBRANCH 114 1244
BRANCH 115 1246
ATOM   1246  N9    G A   6     -29.176  -0.875  37.831  1.00  0.00    -0.293 N 
ATOM   1247  C8    G A   6     -29.665  -1.385  39.010  1.00  0.00     0.214 A 
ATOM   1248  N7    G A   6     -28.729  -1.717  39.856  1.00  0.00    -0.234 NA
ATOM   1249  C5    G A   6     -27.546  -1.411  39.194  1.00  0.00     0.173 A 
ATOM   1250  C4    G A   6     -27.806  -0.893  37.943  1.00  0.00     0.187 A 
ATOM   1251  C6    G A   6     -26.196  -1.553  39.608  1.00  0.00     0.292 A 
ATOM   1252  N3    G A   6     -26.929  -0.480  37.003  1.00  0.00    -0.044 NA
ATOM   1253  C2    G A   6     -25.677  -0.620  37.403  1.00  0.00     0.703 A 
ATOM   1254  N2    G A   6     -24.677  -0.262  36.594  1.00  0.00    -0.233 N 
ATOM   1255  N1    G A   6     -25.313  -1.122  38.626  1.00  0.00    -0.153 N 
ATOM   1256  H22   G A   6     -23.718  -0.366  36.893  1.00  0.00     0.174 HD
ATOM   1257  H21   G A   6     -24.886   0.114  35.680  1.00  0.00     0.174 HD
ATOM   1258  H1    G A   6     -24.327  -1.184  38.830  1.00  0.00     0.187 HD
ATOM   1259  O6    G A   6     -25.758  -1.993  40.677  1.00  0.00    -0.265 OA
ENDBRANCH 115 1246
ENDBRANCH 111 112
ENDBRANCH 110 111
ENDBRANCH 107 110
ENDBRANCH 106 107
ENDBRANCH 102 106
BRANCH 103 1260
ATOM   1260  O2'   C A   5     -35.321   1.386  41.211  1.00  0.00    -0.388 OA
ATOM   1261 'HO2   C A   5     -35.804   2.050  41.706  1.00  0.00     0.210 HD
ENDBRANCH 103 1260
BRANCH 104 1262
ATOM   1262  N1    C A   5     -38.661   0.036  41.464  1.00  0.00    -0.278 N 
ATOM   1263  C2    C A   5     -39.351   0.454  42.604  1.00  0.00     0.352 A 
ATOM   1264  O2    C A   5     -39.095   1.565  43.088  1.00  0.00    -0.244 OA
ATOM   1265  N3    C A   5     -40.280  -0.360  43.152  1.00  0.00    -0.177 NA
ATOM   1266  C4    C A   5     -40.532  -1.548  42.602  1.00  0.00     0.128 A 
ATOM   1267  N4    C A   5     -41.457  -2.314  43.178  1.00  0.00    -0.384 N 
ATOM   1268  C5    C A   5     -39.846  -2.002  41.438  1.00  0.00     0.067 A 
ATOM   1269  H42   C A   5     -41.935  -1.986  44.006  1.00  0.00     0.157 HD
ATOM   1270  H41   C A   5     -41.681  -3.220  42.796  1.00  0.00     0.157 HD
ATOM   1271  C6    C A   5     -38.925  -1.185  40.908  1.00  0.00     0.102 A 
ENDBRANCH 104 1262
ENDBRANCH 100 101
ENDBRANCH  99 100
ENDBRANCH  96  99
ENDBRANCH  95  96
ENDBRANCH  67  95
ENDBRANCH  24  27
ENDBRANCH  23  24
ENDBRANCH  22  23
BRANCH  21 1272
ATOM   1272  O2'   G A   1     -40.480   7.223  48.760  1.00  0.00    -0.388 OA
ATOM   1273 'HO2   G A   1     -40.755   7.359  47.853  1.00  0.00     0.210 HD
ENDBRANCH  21 1272
TORSDOF 402
ENDMDL
MODEL 3
REMARK VINA RESULT:      -2.2      3.844      8.304
REMARK WARNING: 32 MAX_TORS EXCEEDED!!!
REMARK  101 active torsions:
REMARK  status: ('A' for Active; 'I' for Inactive)
REMARK       I    between atoms: O5'_2  and  C5'_3 
REMARK       I    between atoms: C5'_3  and  C4'_4 
REMARK       I    between atoms: C1'_6  and  N9_7 
REMARK       I    between atoms: C2_10  and  N2_11 
REMARK    1  A    between atoms: C2'_21  and  O2'_22 
REMARK    2  A    between atoms: C3'_24  and  O3'_25 
REMARK    3  A    between atoms: O3'_25  and  P_26 
REMARK    4  A    between atoms: P_26  and  O5'_29 
REMARK       I    between atoms: O5'_29  and  C5'_30 
REMARK       I    between atoms: C5'_30  and  C4'_31 
REMARK       I    between atoms: C1'_33  and  N9_34 
REMARK       I    between atoms: C2_37  and  N2_38 
REMARK       I    between atoms: C2'_48  and  O2'_49 
REMARK       I    between atoms: C3'_51  and  O3'_52 
REMARK       I    between atoms: O3'_52  and  P_53 
REMARK       I    between atoms: P_53  and  O5'_56 
REMARK       I    between atoms: O5'_56  and  C5'_57 
REMARK       I    between atoms: C5'_57  and  C4'_58 
REMARK       I    between atoms: C1'_60  and  N1_61 
REMARK       I    between atoms: C4_66  and  N4_67 
REMARK       I    between atoms: C2'_71  and  O2'_72 
REMARK       I    between atoms: C3'_74  and  O3'_75 
REMARK       I    between atoms: O3'_75  and  P_76 
REMARK       I    between atoms: P_76  and  O5'_79 
REMARK       I    between atoms: O5'_79  and  C5'_80 
REMARK       I    between atoms: C5'_80  and  C4'_81 
REMARK       I    between atoms: C1'_83  and  N1_84 
REMARK       I    between atoms: C2'_93  and  O2'_94 
REMARK    5  A    between atoms: C3'_96  and  O3'_97 
REMARK    6  A    between atoms: O3'_97  and  P_98 
REMARK    7  A    between atoms: P_98  and  O5'_101 
REMARK    8  A    between atoms: O5'_101  and  C5'_102 
REMARK    9  A    between atoms: C5'_102  and  C4'_103 
REMARK   10  A    between atoms: C1'_105  and  N1_106 
REMARK       I    between atoms: C4_111  and  N4_112 
REMARK   11  A    between atoms: C2'_116  and  O2'_117 
REMARK   12  A    between atoms: C3'_119  and  O3'_120 
REMARK   13  A    between atoms: O3'_120  and  P_121 
REMARK   14  A    between atoms: P_121  and  O5'_124 
REMARK   15  A    between atoms: O5'_124  and  C5'_125 
REMARK   16  A    between atoms: C5'_125  and  C4'_126 
REMARK   17  A    between atoms: C1'_128  and  N9_129 
REMARK       I    between atoms: C2_132  and  N2_133 
REMARK   18  A    between atoms: C2'_143  and  O2'_144 
REMARK   19  A    between atoms: C3'_146  and  O3'_147 
REMARK       I    between atoms: O3'_147  and  P_148 
REMARK       I    between atoms: P_148  and  O5'_151 
REMARK       I    between atoms: O5'_151  and  C5'_152 
REMARK       I    between atoms: C5'_152  and  C4'_153 
REMARK       I    between atoms: C1'_155  and  N1_156 
REMARK       I    between atoms: C2'_165  and  O2'_166 
REMARK       I    between atoms: C3'_168  and  O3'_169 
REMARK       I    between atoms: O3'_169  and  P_170 
REMARK       I    between atoms: P_170  and  O5'_173 
REMARK       I    between atoms: O5'_173  and  C5'_174 
REMARK       I    between atoms: C5'_174  and  C4'_175 
REMARK       I    between atoms: C1'_177  and  N1_178 
REMARK       I    between atoms: C2'_187  and  O2'_188 
REMARK       I    between atoms: C3'_190  and  O3'_191 
REMARK   20  A    between atoms: O3'_191  and  P_192 
REMARK   21  A    between atoms: P_192  and  O5'_195 
REMARK   22  A    between atoms: O5'_195  and  C5'_196 
REMARK       I    between atoms: C5'_196  and  C4'_197 
REMARK   23  A    between atoms: C1'_199  and  N9_200 
REMARK   24  A    between atoms: C2_203  and  N2_204 
REMARK       I    between atoms: C2'_214  and  O2'_215 
REMARK       I    between atoms: C3'_217  and  O3'_218 
REMARK       I    between atoms: O3'_218  and  P_219 
REMARK       I    between atoms: P_219  and  O5'_222 
REMARK       I    between atoms: O5'_222  and  C5'_223 
REMARK       I    between atoms: C5'_223  and  C4'_224 
REMARK       I    between atoms: C1'_226  and  N9_227 
REMARK       I    between atoms: C2_230  and  N2_231 
REMARK   25  A    between atoms: C2'_241  and  O2'_242 
REMARK   26  A    between atoms: C3'_244  and  O3'_245 
REMARK   27  A    between atoms: O3'_245  and  P_246 
REMARK   28  A    between atoms: P_246  and  O5'_249 
REMARK   29  A    between atoms: O5'_249  and  C5'_250 
REMARK   30  A    between atoms: C5'_250  and  C4'_251 
REMARK       I    between atoms: C1'_253  and  N1_254 
REMARK       I    between atoms: C2'_263  and  O2'_264 
REMARK       I    between atoms: C3'_266  and  O3'_267 
REMARK       I    between atoms: O3'_267  and  P_268 
REMARK       I    between atoms: P_268  and  O5'_271 
REMARK       I    between atoms: O5'_271  and  C5'_272 
REMARK       I    between atoms: C5'_272  and  C4'_273 
REMARK       I    between atoms: C1'_275  and  N1_276 
REMARK       I    between atoms: C4_281  and  N4_282 
REMARK   31  A    between atoms: C2'_286  and  O2'_287 
REMARK   32  A    between atoms: C3'_289  and  O3'_290 
REMARK   33  A    between atoms: O3'_290  and  P_291 
REMARK   34  A    between atoms: P_291  and  O5'_294 
REMARK   35  A    between atoms: O5'_294  and  C5'_295 
REMARK   36  A    between atoms: C5'_295  and  C4'_296 
REMARK   37  A    between atoms: C1'_298  and  N1_299 
REMARK       I    between atoms: C2'_308  and  O2'_309 
REMARK       I    between atoms: C3'_311  and  O3'_312 
REMARK       I    between atoms: O3'_312  and  P_313 
REMARK       I    between atoms: P_313  and  O5'_316 
REMARK       I    between atoms: O5'_316  and  C5'_317 
REMARK       I    between atoms: C5'_317  and  C4'_318 
REMARK       I    between atoms: C1'_320  and  N1_321 
REMARK       I    between atoms: C4_326  and  N4_327 
REMARK       I    between atoms: C2'_331  and  O2'_332 
REMARK       I    between atoms: C3'_334  and  O3'_335 
REMARK       I    between atoms: O3'_335  and  P_336 
REMARK       I    between atoms: P_336  and  O5'_339 
REMARK       I    between atoms: O5'_339  and  C5'_340 
REMARK       I    between atoms: C5'_340  and  C4'_341 
REMARK       I    between atoms: C1'_343  and  N9_344 
REMARK       I    between atoms: C2_347  and  N2_348 
REMARK       I    between atoms: C2'_358  and  O2'_359 
REMARK       I    between atoms: C3'_361  and  O3'_362 
REMARK       I    between atoms: O3'_362  and  P_363 
REMARK       I    between atoms: P_363  and  O5'_366 
REMARK       I    between atoms: O5'_366  and  C5'_367 
REMARK       I    between atoms: C5'_367  and  C4'_368 
REMARK       I    between atoms: C1'_370  and  N1_371 
REMARK       I    between atoms: C4_376  and  N4_377 
REMARK   38  A    between atoms: C2'_381  and  O2'_382 
REMARK   39  A    between atoms: C3'_384  and  O3'_385 
REMARK   40  A    between atoms: O3'_385  and  P_386 
REMARK   41  A    between atoms: P_386  and  O5'_389 
REMARK   42  A    between atoms: O5'_389  and  C5'_390 
REMARK   43  A    between atoms: C5'_390  and  C4'_391 
REMARK       I    between atoms: C1'_393  and  N1_394 
REMARK       I    between atoms: C2'_403  and  O2'_404 
REMARK   44  A    between atoms: C3'_406  and  O3'_407 
REMARK   45  A    between atoms: O3'_407  and  P_408 
REMARK   46  A    between atoms: P_408  and  O5'_411 
REMARK   47  A    between atoms: O5'_411  and  C5'_412 
REMARK       I    between atoms: C5'_412  and  C4'_413 
REMARK       I    between atoms: C1'_415  and  N1_416 
REMARK       I    between atoms: C2'_425  and  O2'_426 
REMARK       I    between atoms: C3'_428  and  O3'_429 
REMARK       I    between atoms: O3'_429  and  P_430 
REMARK       I    between atoms: P_430  and  O5'_433 
REMARK       I    between atoms: O5'_433  and  C5'_434 
REMARK       I    between atoms: C5'_434  and  C4'_435 
REMARK       I    between atoms: C1'_437  and  N1_438 
REMARK       I    between atoms: C2'_447  and  O2'_448 
REMARK       I    between atoms: C3'_450  and  O3'_451 
REMARK       I    between atoms: O3'_451  and  P_452 
REMARK       I    between atoms: P_452  and  O5'_455 
REMARK       I    between atoms: O5'_455  and  C5'_456 
REMARK       I    between atoms: C5'_456  and  C4'_457 
REMARK       I    between atoms: C1'_459  and  N9_460 
REMARK       I    between atoms: C2_463  and  N2_464 
REMARK       I    between atoms: C2'_474  and  O2'_475 
REMARK       I    between atoms: C3'_477  and  O3'_478 
REMARK       I    between atoms: O3'_478  and  P_479 
REMARK       I    between atoms: P_479  and  O5'_482 
REMARK       I    between atoms: O5'_482  and  C5'_483 
REMARK       I    between atoms: C5'_483  and  C4'_484 
REMARK       I    between atoms: C1'_486  and  N9_487 
REMARK       I    between atoms: C2_490  and  N2_491 
REMARK       I    between atoms: C2'_501  and  O2'_502 
REMARK       I    between atoms: C3'_504  and  O3'_505 
REMARK       I    between atoms: O3'_505  and  P_506 
REMARK       I    between atoms: P_506  and  O5'_509 
REMARK       I    between atoms: O5'_509  and  C5'_510 
REMARK       I    between atoms: C5'_510  and  C4'_511 
REMARK       I    between atoms: C1'_513  and  N9_514 
REMARK       I    between atoms: C2_517  and  N2_518 
REMARK       I    between atoms: C2'_528  and  O2'_529 
REMARK       I    between atoms: C3'_531  and  O3'_532 
REMARK       I    between atoms: O3'_532  and  P_533 
REMARK       I    between atoms: P_533  and  O5'_536 
REMARK       I    between atoms: O5'_536  and  C5'_537 
REMARK       I    between atoms: C5'_537  and  C4'_538 
REMARK       I    between atoms: C1'_540  and  N1_541 
REMARK       I    between atoms: C2'_550  and  O2'_551 
REMARK       I    between atoms: C3'_553  and  O3'_554 
REMARK       I    between atoms: O3'_554  and  P_555 
REMARK       I    between atoms: P_555  and  O5'_558 
REMARK       I    between atoms: O5'_558  and  C5'_559 
REMARK       I    between atoms: C5'_559  and  C4'_560 
REMARK       I    between atoms: C1'_562  and  N9_563 
REMARK       I    between atoms: C2_566  and  N2_567 
REMARK       I    between atoms: C2'_577  and  O2'_578 
REMARK       I    between atoms: C3'_580  and  O3'_581 
REMARK       I    between atoms: O3'_581  and  P_582 
REMARK       I    between atoms: P_582  and  O5'_585 
REMARK       I    between atoms: O5'_585  and  C5'_586 
REMARK   48  A    between atoms: C5'_586  and  C4'_587 
REMARK   49  A    between atoms: C1'_589  and  N1_590 
REMARK       I    between atoms: C4_595  and  N4_596 
REMARK   50  A    between atoms: C2'_600  and  O2'_601 
REMARK   51  A    between atoms: C3'_603  and  O3'_604 
REMARK   52  A    between atoms: O3'_604  and  P_605 
REMARK   53  A    between atoms: P_605  and  O5'_608 
REMARK   54  A    between atoms: O5'_608  and  C5'_609 
REMARK       I    between atoms: C5'_609  and  C4'_610 
REMARK       I    between atoms: C1'_612  and  N9_613 
REMARK       I    between atoms: C2_616  and  N2_617 
REMARK       I    between atoms: C2'_627  and  O2'_628 
REMARK       I    between atoms: C3'_630  and  O3'_631 
REMARK       I    between atoms: O3'_631  and  P_632 
REMARK       I    between atoms: P_632  and  O5'_635 
REMARK       I    between atoms: O5'_635  and  C5'_636 
REMARK       I    between atoms: C5'_636  and  C4'_637 
REMARK       I    between atoms: C1'_639  and  N9_640 
REMARK       I    between atoms: C6_645  and  N6_646 
REMARK       I    between atoms: C2'_652  and  O2'_653 
REMARK       I    between atoms: C3'_655  and  O3'_656 
REMARK       I    between atoms: O3'_656  and  P_657 
REMARK       I    between atoms: P_657  and  O5'_660 
REMARK       I    between atoms: O5'_660  and  C5'_661 
REMARK       I    between atoms: C5'_661  and  C4'_662 
REMARK       I    between atoms: C1'_664  and  N9_665 
REMARK   55  A    between atoms: C2_668  and  N2_669 
REMARK   56  A    between atoms: C2'_679  and  O2'_680 
REMARK   57  A    between atoms: C3'_682  and  O3'_683 
REMARK   58  A    between atoms: O3'_683  and  P_684 
REMARK   59  A    between atoms: P_684  and  O5'_687 
REMARK   60  A    between atoms: O5'_687  and  C5'_688 
REMARK   61  A    between atoms: C5'_688  and  C4'_689 
REMARK   62  A    between atoms: C1'_691  and  N9_692 
REMARK       I    between atoms: C6_697  and  N6_698 
REMARK       I    between atoms: C2'_704  and  O2'_705 
REMARK       I    between atoms: C3'_707  and  O3'_708 
REMARK       I    between atoms: O3'_708  and  P_709 
REMARK       I    between atoms: P_709  and  O5'_712 
REMARK       I    between atoms: O5'_712  and  C5'_713 
REMARK       I    between atoms: C5'_713  and  C4'_714 
REMARK       I    between atoms: C1'_716  and  N9_717 
REMARK       I    between atoms: C2_720  and  N2_721 
REMARK       I    between atoms: C2'_731  and  O2'_732 
REMARK       I    between atoms: C3'_734  and  O3'_735 
REMARK       I    between atoms: O3'_735  and  P_736 
REMARK       I    between atoms: P_736  and  O5'_739 
REMARK       I    between atoms: O5'_739  and  C5'_740 
REMARK       I    between atoms: C5'_740  and  C4'_741 
REMARK       I    between atoms: C1'_743  and  N9_744 
REMARK       I    between atoms: C2_747  and  N2_748 
REMARK       I    between atoms: C2'_758  and  O2'_759 
REMARK       I    between atoms: C3'_761  and  O3'_762 
REMARK       I    between atoms: O3'_762  and  P_763 
REMARK       I    between atoms: P_763  and  O5'_766 
REMARK       I    between atoms: O5'_766  and  C5'_767 
REMARK       I    between atoms: C5'_767  and  C4'_768 
REMARK       I    between atoms: C1'_770  and  N9_771 
REMARK       I    between atoms: C2_774  and  N2_775 
REMARK       I    between atoms: C2'_785  and  O2'_786 
REMARK       I    between atoms: C3'_788  and  O3'_789 
REMARK       I    between atoms: O3'_789  and  P_790 
REMARK       I    between atoms: P_790  and  O5'_793 
REMARK       I    between atoms: O5'_793  and  C5'_794 
REMARK       I    between atoms: C5'_794  and  C4'_795 
REMARK       I    between atoms: C1'_797  and  N1_798 
REMARK       I    between atoms: C2'_807  and  O2'_808 
REMARK       I    between atoms: C3'_810  and  O3'_811 
REMARK       I    between atoms: O3'_811  and  P_812 
REMARK       I    between atoms: P_812  and  O5'_815 
REMARK       I    between atoms: O5'_815  and  C5'_816 
REMARK       I    between atoms: C5'_816  and  C4'_817 
REMARK       I    between atoms: C1'_819  and  N1_820 
REMARK   63  A    between atoms: C2'_829  and  O2'_830 
REMARK   64  A    between atoms: C3'_832  and  O3'_833 
REMARK   65  A    between atoms: O3'_833  and  P_834 
REMARK   66  A    between atoms: P_834  and  O5'_837 
REMARK   67  A    between atoms: O5'_837  and  C5'_838 
REMARK   68  A    between atoms: C5'_838  and  C4'_839 
REMARK       I    between atoms: C1'_841  and  N1_842 
REMARK       I    between atoms: C4_847  and  N4_848 
REMARK       I    between atoms: C2'_852  and  O2'_853 
REMARK       I    between atoms: C3'_855  and  O3'_856 
REMARK       I    between atoms: O3'_856  and  P_857 
REMARK       I    between atoms: P_857  and  O5'_860 
REMARK       I    between atoms: O5'_860  and  C5'_861 
REMARK       I    between atoms: C5'_861  and  C4'_862 
REMARK       I    between atoms: C1'_864  and  N9_865 
REMARK       I    between atoms: C6_870  and  N6_871 
REMARK       I    between atoms: C2'_877  and  O2'_878 
REMARK       I    between atoms: C3'_880  and  O3'_881 
REMARK       I    between atoms: O3'_881  and  P_882 
REMARK       I    between atoms: P_882  and  O5'_885 
REMARK   69  A    between atoms: O5'_885  and  C5'_886 
REMARK   70  A    between atoms: C5'_886  and  C4'_887 
REMARK   71  A    between atoms: C1'_889  and  N9_890 
REMARK       I    between atoms: C6_895  and  N6_896 
REMARK   72  A    between atoms: C2'_902  and  O2'_903 
REMARK   73  A    between atoms: C3'_905  and  O3'_906 
REMARK   74  A    between atoms: O3'_906  and  P_907 
REMARK   75  A    between atoms: P_907  and  O5'_910 
REMARK   76  A    between atoms: O5'_910  and  C5'_911 
REMARK   77  A    between atoms: C5'_911  and  C4'_912 
REMARK   78  A    between atoms: C1'_914  and  N9_915 
REMARK       I    between atoms: C6_920  and  N6_921 
REMARK       I    between atoms: C2'_927  and  O2'_928 
REMARK   79  A    between atoms: C3'_930  and  O3'_931 
REMARK       I    between atoms: O3'_931  and  P_932 
REMARK       I    between atoms: P_932  and  O5'_935 
REMARK       I    between atoms: O5'_935  and  C5'_936 
REMARK       I    between atoms: C5'_936  and  C4'_937 
REMARK       I    between atoms: C1'_939  and  N1_940 
REMARK       I    between atoms: C2'_949  and  O2'_950 
REMARK       I    between atoms: C3'_952  and  O3'_953 
REMARK       I    between atoms: O3'_953  and  P_954 
REMARK       I    between atoms: P_954  and  O5'_957 
REMARK       I    between atoms: O5'_957  and  C5'_958 
REMARK       I    between atoms: C5'_958  and  C4'_959 
REMARK       I    between atoms: C1'_961  and  N1_962 
REMARK       I    between atoms: C4_967  and  N4_968 
REMARK       I    between atoms: C2'_972  and  O2'_973 
REMARK       I    between atoms: C3'_975  and  O3'_976 
REMARK       I    between atoms: O3'_976  and  P_977 
REMARK       I    between atoms: P_977  and  O5'_980 
REMARK       I    between atoms: O5'_980  and  C5'_981 
REMARK       I    between atoms: C5'_981  and  C4'_982 
REMARK       I    between atoms: C1'_984  and  N1_985 
REMARK       I    between atoms: C4_990  and  N4_991 
REMARK       I    between atoms: C2'_995  and  O2'_996 
REMARK       I    between atoms: C3'_998  and  O3'_999 
REMARK       I    between atoms: O3'_999  and  P_1000 
REMARK       I    between atoms: P_1000  and  O5'_1003 
REMARK       I    between atoms: O5'_1003  and  C5'_1004 
REMARK       I    between atoms: C5'_1004  and  C4'_1005 
REMARK   80  A    between atoms: C1'_1007  and  N1_1008 
REMARK       I    between atoms: C4_1013  and  N4_1014 
REMARK   81  A    between atoms: C2'_1018  and  O2'_1019 
REMARK   82  A    between atoms: C3'_1021  and  O3'_1022 
REMARK   83  A    between atoms: O3'_1022  and  P_1023 
REMARK   84  A    between atoms: P_1023  and  O5'_1026 
REMARK   85  A    between atoms: O5'_1026  and  C5'_1027 
REMARK   86  A    between atoms: C5'_1027  and  C4'_1028 
REMARK   87  A    between atoms: C1'_1030  and  N9_1031 
REMARK       I    between atoms: C2_1034  and  N2_1035 
REMARK       I    between atoms: C2'_1045  and  O2'_1046 
REMARK       I    between atoms: C3'_1048  and  O3'_1049 
REMARK       I    between atoms: O3'_1049  and  P_1050 
REMARK       I    between atoms: P_1050  and  O5'_1053 
REMARK       I    between atoms: O5'_1053  and  C5'_1054 
REMARK       I    between atoms: C5'_1054  and  C4'_1055 
REMARK       I    between atoms: C1'_1057  and  N9_1058 
REMARK       I    between atoms: C2_1061  and  N2_1062 
REMARK   88  A    between atoms: C2'_1072  and  O2'_1073 
REMARK   89  A    between atoms: C3'_1075  and  O3'_1076 
REMARK   90  A    between atoms: O3'_1076  and  P_1077 
REMARK       I    between atoms: P_1077  and  O5'_1080 
REMARK       I    between atoms: O5'_1080  and  C5'_1081 
REMARK       I    between atoms: C5'_1081  and  C4'_1082 
REMARK       I    between atoms: C1'_1084  and  N9_1085 
REMARK       I    between atoms: C6_1090  and  N6_1091 
REMARK       I    between atoms: C2'_1097  and  O2'_1098 
REMARK       I    between atoms: C3'_1100  and  O3'_1101 
REMARK   91  A    between atoms: O3'_1101  and  P_1102 
REMARK   92  A    between atoms: P_1102  and  O5'_1105 
REMARK   93  A    between atoms: O5'_1105  and  C5'_1106 
REMARK   94  A    between atoms: C5'_1106  and  C4'_1107 
REMARK   95  A    between atoms: C1'_1109  and  N1_1110 
REMARK       I    between atoms: C4_1115  and  N4_1116 
REMARK   96  A    between atoms: C2'_1120  and  O2'_1121 
REMARK   97  A    between atoms: C3'_1123  and  O3'_1124 
REMARK   98  A    between atoms: O3'_1124  and  P_1125 
REMARK   99  A    between atoms: P_1125  and  O5'_1128 
REMARK  100  A    between atoms: O5'_1128  and  C5'_1129 
REMARK  101  A    between atoms: C5'_1129  and  C4'_1130 
REMARK       I    between atoms: C1'_1132  and  N9_1133 
REMARK       I    between atoms: C2_1136  and  N2_1137 
REMARK       I    between atoms: C2'_1147  and  O2'_1148 
REMARK       I    between atoms: C3'_1150  and  O3'_1151 
REMARK       I    between atoms: O3'_1151  and  P_1152 
REMARK       I    between atoms: P_1152  and  O5'_1155 
REMARK       I    between atoms: O5'_1155  and  C5'_1156 
REMARK       I    between atoms: C5'_1156  and  C4'_1157 
REMARK       I    between atoms: C1'_1159  and  N9_1160 
REMARK       I    between atoms: C6_1165  and  N6_1166 
REMARK       I    between atoms: C2'_1172  and  O2'_1173 
REMARK       I    between atoms: C3'_1175  and  O3'_1176 
REMARK       I    between atoms: O3'_1176  and  P_1177 
REMARK       I    between atoms: P_1177  and  O5'_1180 
REMARK       I    between atoms: O5'_1180  and  C5'_1181 
REMARK       I    between atoms: C5'_1181  and  C4'_1182 
REMARK       I    between atoms: C1'_1184  and  N9_1185 
REMARK       I    between atoms: C2_1188  and  N2_1189 
REMARK       I    between atoms: C2'_1199  and  O2'_1200 
REMARK       I    between atoms: C3'_1202  and  O3'_1203 
REMARK       I    between atoms: O3'_1203  and  P_1204 
REMARK       I    between atoms: P_1204  and  O5'_1207 
REMARK       I    between atoms: O5'_1207  and  C5'_1208 
REMARK       I    between atoms: C5'_1208  and  C4'_1209 
REMARK       I    between atoms: C1'_1211  and  N1_1212 
REMARK       I    between atoms: C4_1217  and  N4_1218 
REMARK       I    between atoms: C2'_1222  and  O2'_1223 
REMARK       I    between atoms: C3'_1225  and  O3'_1226 
REMARK       I    between atoms: O3'_1226  and  P_1227 
REMARK       I    between atoms: P_1227  and  O5'_1230 
REMARK       I    between atoms: O5'_1230  and  C5'_1231 
REMARK       I    between atoms: C5'_1231  and  C4'_1232 
REMARK       I    between atoms: C1'_1234  and  N1_1235 
REMARK       I    between atoms: C4_1240  and  N4_1241 
REMARK       I    between atoms: C2'_1245  and  O2'_1246 
REMARK       I    between atoms: C3'_1248  and  O3'_1249 
REMARK       I    between atoms: O3'_1249  and  P_1250 
REMARK       I    between atoms: P_1250  and  O5'_1253 
REMARK       I    between atoms: O5'_1253  and  C5'_1254 
REMARK       I    between atoms: C5'_1254  and  C4'_1255 
REMARK       I    between atoms: C1'_1257  and  N1_1258 
REMARK       I    between atoms: C4_1263  and  N4_1264 
REMARK       I    between atoms: C2'_1268  and  O2'_1269 
REMARK       I    between atoms: C3'_1271  and  O3'_1272 
ROOT
ATOM      1 'HO5   G A   1     -42.816   3.932  50.774  1.00  0.00     0.209 HD
ATOM      2  O5'   G A   1     -43.580   4.317  51.211  1.00  0.00    -0.398 OA
ATOM      3  C5'   G A   1     -43.169   5.581  51.741  1.00  0.00     0.198 C 
ATOM      4  C4'   G A   1     -41.825   5.986  51.184  1.00  0.00     0.180 C 
ATOM      5  O4'   G A   1     -40.813   5.071  51.692  1.00  0.00    -0.353 OA
ATOM      6  C1'   G A   1     -39.938   4.695  50.646  1.00  0.00     0.262 C 
ATOM      7  N9    G A   1     -40.167   3.286  50.338  1.00  0.00    -0.293 N 
ATOM      8  C4    G A   1     -39.556   2.556  49.346  1.00  0.00     0.187 A 
ATOM      9  N3    G A   1     -38.628   3.016  48.481  1.00  0.00    -0.044 NA
ATOM     10  C2    G A   1     -38.230   2.078  47.641  1.00  0.00     0.703 A 
ATOM     11  N2    G A   1     -37.313   2.363  46.714  1.00  0.00    -0.233 N 
ATOM     12  H21   G A   1     -36.932   3.296  46.666  1.00  0.00     0.174 HD
ATOM     13  H22   G A   1     -37.004   1.651  46.067  1.00  0.00     0.174 HD
ATOM     14  N1    G A   1     -38.703   0.792  47.646  1.00  0.00    -0.153 N 
ATOM     15  H1    G A   1     -38.331   0.155  46.960  1.00  0.00     0.187 HD
ATOM     16  C6    G A   1     -39.657   0.294  48.527  1.00  0.00     0.292 A 
ATOM     17  O6    G A   1     -40.012  -0.889  48.444  1.00  0.00    -0.265 OA
ATOM     18  C5    G A   1     -40.096   1.291  49.437  1.00  0.00     0.173 A 
ATOM     19  N7    G A   1     -41.025   1.223  50.467  1.00  0.00    -0.234 NA
ATOM     20  C8    G A   1     -41.032   2.427  50.971  1.00  0.00     0.214 A 
ATOM     21  C2'   G A   1     -40.214   5.632  49.472  1.00  0.00     0.199 C 
ATOM     22  C3'   G A   1     -41.698   5.910  49.667  1.00  0.00     0.198 C 
ENDROOT
BRANCH  22  23
ATOM     23  O3'   G A   1     -42.113   7.125  49.047  1.00  0.00    -0.279 OA
BRANCH  23  24
ATOM     24  P     G A   2     -42.188   8.480  49.910  1.00  0.00     0.408 P 
ATOM     25  OP2   G A   2     -43.615   8.781  50.192  1.00  0.00    -0.624 OA
ATOM     26  OP1   G A   2     -41.231   8.336  51.036  1.00  0.00    -0.624 OA
BRANCH  24  27
ATOM     27  O5'   G A   2     -41.627   9.598  48.921  1.00  0.00    -0.287 OA
ATOM     28  C5'   G A   2     -42.190  10.907  48.900  1.00  0.00     0.216 C 
ATOM     29  C4'   G A   2     -41.535  11.741  47.823  1.00  0.00     0.180 C 
ATOM     30  C3'   G A   2     -41.438  11.089  46.452  1.00  0.00     0.198 C 
ATOM     31  O4'   G A   2     -40.152  11.993  48.190  1.00  0.00    -0.353 OA
ATOM     32  C2'   G A   2     -40.275  11.844  45.819  1.00  0.00     0.199 C 
ATOM     33  O3'   G A   2     -42.649  11.230  45.713  1.00  0.00    -0.279 OA
ATOM     34  O2'   G A   2     -40.682  13.121  45.364  1.00  0.00    -0.388 OA
ATOM     35  C1'   G A   2     -39.349  12.023  47.022  1.00  0.00     0.262 C 
ATOM     36 'HO2   G A   2     -41.628  13.077  45.229  1.00  0.00     0.210 HD
ATOM     37  N9    G A   2     -38.332  10.983  47.134  1.00  0.00    -0.293 N 
ATOM     38  C8    G A   2     -38.267   9.979  48.070  1.00  0.00     0.214 A 
ATOM     39  C4    G A   2     -37.240  10.819  46.316  1.00  0.00     0.187 A 
ATOM     40  N7    G A   2     -37.233   9.198  47.918  1.00  0.00    -0.234 NA
ATOM     41  C5    G A   2     -36.573   9.718  46.811  1.00  0.00     0.173 A 
ATOM     42  C6    G A   2     -35.383   9.293  46.165  1.00  0.00     0.292 A 
ATOM     43  O6    G A   2     -34.646   8.342  46.451  1.00  0.00    -0.265 OA
ATOM     44  N1    G A   2     -35.075  10.103  45.078  1.00  0.00    -0.153 N 
ATOM     45  H1    G A   2     -34.245   9.879  44.553  1.00  0.00     0.187 HD
ATOM     46  C2    G A   2     -35.812  11.183  44.667  1.00  0.00     0.703 A 
ATOM     47  N2    G A   2     -35.351  11.837  43.599  1.00  0.00    -0.233 N 
ATOM     48  N3    G A   2     -36.919  11.591  45.258  1.00  0.00    -0.044 NA
ATOM     49  H22   G A   2     -34.504  11.532  43.139  1.00  0.00     0.174 HD
ATOM     50  H21   G A   2     -35.856  12.640  43.253  1.00  0.00     0.174 HD
ATOM     51  P     C A   3     -43.030  10.146  44.587  1.00  0.00     0.408 P 
ATOM     52  OP2   C A   3     -42.911   8.790  45.179  1.00  0.00    -0.624 OA
ATOM     53  O5'   C A   3     -41.886  10.312  43.490  1.00  0.00    -0.287 OA
ATOM     54  OP1   C A   3     -44.317  10.572  43.982  1.00  0.00    -0.624 OA
ATOM     55  C5'   C A   3     -41.726  11.537  42.777  1.00  0.00     0.216 C 
ATOM     56  C4'   C A   3     -40.642  11.398  41.733  1.00  0.00     0.180 C 
ATOM     57  C3'   C A   3     -40.641  10.097  40.946  1.00  0.00     0.198 C 
ATOM     58  O4'   C A   3     -39.343  11.402  42.385  1.00  0.00    -0.353 OA
ATOM     59  O3'   C A   3     -41.586  10.111  39.879  1.00  0.00    -0.279 OA
ATOM     60  C2'   C A   3     -39.202  10.030  40.451  1.00  0.00     0.199 C 
ATOM     61  P     T A   4     -42.133   8.723  39.281  1.00  0.00     0.408 P 
ATOM     62  O5'   T A   4     -40.858   8.076  38.579  1.00  0.00    -0.287 OA
ATOM     63  OP1   T A   4     -43.126   9.055  38.227  1.00  0.00    -0.624 OA
ATOM     64  OP2   T A   4     -42.532   7.848  40.414  1.00  0.00    -0.624 OA
ATOM     65  C5'   T A   4     -40.368   8.583  37.338  1.00  0.00     0.216 C 
ATOM     66  C4'   T A   4     -38.988   8.034  37.052  1.00  0.00     0.180 C 
ATOM     67  C3'   T A   4     -38.924   6.572  36.643  1.00  0.00     0.198 C 
ATOM     68  O4'   T A   4     -38.180   8.069  38.256  1.00  0.00    -0.353 OA
ATOM     69  C2'   T A   4     -37.465   6.228  36.923  1.00  0.00     0.199 C 
ATOM     70  O2'   T A   4     -36.620   6.709  35.896  1.00  0.00    -0.388 OA
ATOM     71  C1'   T A   4     -37.201   7.045  38.192  1.00  0.00     0.264 C 
ATOM     72 'HO2   T A   4     -37.046   6.502  35.064  1.00  0.00     0.210 HD
ATOM     73  N1    T A   4     -37.274   6.245  39.425  1.00  0.00    -0.280 N 
ATOM     74  C2    T A   4     -36.224   5.386  39.694  1.00  0.00     0.331 A 
ATOM     75  C6    T A   4     -38.348   6.343  40.281  1.00  0.00     0.104 A 
ATOM     76  O2    T A   4     -35.256   5.272  38.964  1.00  0.00    -0.246 OA
ATOM     77  N3    T A   4     -36.348   4.663  40.851  1.00  0.00    -0.275 N 
ATOM     78  H3    T A   4     -35.593   4.028  41.064  1.00  0.00     0.173 HD
ATOM     79  C4    T A   4     -37.389   4.710  41.750  1.00  0.00     0.250 A 
ATOM     80  C5    T A   4     -38.433   5.622  41.404  1.00  0.00     0.092 A 
ATOM     81  O4    T A   4     -37.355   3.991  42.749  1.00  0.00    -0.268 OA
ATOM     82  C1'   C A   3     -38.453  10.556  41.674  1.00  0.00     0.264 C 
ATOM     83  O2'   C A   3     -38.988  10.919  39.370  1.00  0.00    -0.388 OA
ATOM     84  N1    C A   3     -37.994   9.489  42.579  1.00  0.00    -0.278 N 
ATOM     85  C2    C A   3     -36.795   8.836  42.292  1.00  0.00     0.352 A 
ATOM     86  C6    C A   3     -38.725   9.137  43.680  1.00  0.00     0.102 A 
ATOM     87  N3    C A   3     -36.365   7.850  43.109  1.00  0.00    -0.177 NA
ATOM     88  O2    C A   3     -36.152   9.175  41.290  1.00  0.00    -0.244 OA
ATOM     89  C4    C A   3     -37.084   7.512  44.181  1.00  0.00     0.128 A 
ATOM     90  N4    C A   3     -36.618   6.536  44.956  1.00  0.00    -0.384 N 
ATOM     91  C5    C A   3     -38.311   8.163  44.502  1.00  0.00     0.067 A 
ATOM     92  H41   C A   3     -37.130   6.248  45.778  1.00  0.00     0.157 HD
ATOM     93  H42   C A   3     -35.746   6.083  44.718  1.00  0.00     0.157 HD
ATOM     94 'HO2   C A   3     -39.769  10.881  38.820  1.00  0.00     0.210 HD
BRANCH  67  95
ATOM     95  O3'   T A   4     -39.279   6.385  35.275  1.00  0.00    -0.279 OA
BRANCH  95  96
ATOM     96  P     C A   5     -40.331   5.238  34.871  1.00  0.00     0.408 P 
ATOM     97  OP1   C A   5     -39.714   4.433  33.787  1.00  0.00    -0.624 OA
ATOM     98  OP2   C A   5     -41.657   5.871  34.651  1.00  0.00    -0.624 OA
BRANCH  96  99
ATOM     99  O5'   C A   5     -40.428   4.326  36.175  1.00  0.00    -0.287 OA
BRANCH  99 100
ATOM    100  C5'   C A   5     -39.697   3.106  36.273  1.00  0.00     0.216 C 
BRANCH 100 101
ATOM    101  C4'   C A   5     -39.137   2.941  37.667  1.00  0.00     0.180 C 
ATOM    102  C3'   C A   5     -39.069   1.515  38.190  1.00  0.00     0.198 C 
ATOM    103  C2'   C A   5     -39.008   1.724  39.700  1.00  0.00     0.199 C 
ATOM    104  C1'   C A   5     -39.903   2.955  39.877  1.00  0.00     0.264 C 
ATOM    105  O4'   C A   5     -40.006   3.603  38.620  1.00  0.00    -0.353 OA
BRANCH 102 106
ATOM    106  O3'   C A   5     -37.930   0.821  37.690  1.00  0.00    -0.279 OA
BRANCH 106 107
ATOM    107  P     G A   6     -37.750  -0.748  38.002  1.00  0.00     0.408 P 
ATOM    108  OP1   G A   6     -39.109  -1.314  38.204  1.00  0.00    -0.624 OA
ATOM    109  OP2   G A   6     -36.725  -0.902  39.066  1.00  0.00    -0.624 OA
BRANCH 107 110
ATOM    110  O5'   G A   6     -37.157  -1.347  36.649  1.00  0.00    -0.287 OA
BRANCH 110 111
ATOM    111  C5'   G A   6     -37.251  -0.626  35.422  1.00  0.00     0.216 C 
BRANCH 111 112
ATOM    112  C4'   G A   6     -35.914  -0.613  34.716  1.00  0.00     0.180 C 
ATOM    113  C3'   G A   6     -35.566  -1.874  33.939  1.00  0.00     0.198 C 
ATOM    114  C2'   G A   6     -34.045  -1.801  33.877  1.00  0.00     0.199 C 
ATOM    115  C1'   G A   6     -33.719  -1.240  35.261  1.00  0.00     0.262 C 
ATOM    116  O4'   G A   6     -34.850  -0.505  35.701  1.00  0.00    -0.353 OA
BRANCH 113 117
ATOM    117  O3'   G A   6     -36.167  -1.879  32.647  1.00  0.00    -0.279 OA
ATOM    118  P     T A   7     -35.507  -1.023  31.454  1.00  0.00     0.408 P 
ATOM    119  OP1   T A   7     -36.285  -1.307  30.221  1.00  0.00    -0.624 OA
ATOM    120  OP2   T A   7     -34.039  -1.249  31.463  1.00  0.00    -0.624 OA
ATOM    121  O5'   T A   7     -35.775   0.491  31.870  1.00  0.00    -0.287 OA
ATOM    122  C5'   T A   7     -37.101   1.020  31.907  1.00  0.00     0.216 C 
ATOM    123  C4'   T A   7     -37.110   2.361  32.603  1.00  0.00     0.180 C 
ATOM    124  C3'   T A   7     -36.297   3.456  31.929  1.00  0.00     0.198 C 
ATOM    125  O4'   T A   7     -36.497   2.223  33.909  1.00  0.00    -0.353 OA
ATOM    126  O3'   T A   7     -37.043   4.090  30.892  1.00  0.00    -0.279 OA
ATOM    127  C2'   T A   7     -35.984   4.403  33.083  1.00  0.00     0.199 C 
ATOM    128  P     T A   8     -36.280   4.963  29.776  1.00  0.00     0.408 P 
ATOM    129  OP2   T A   8     -34.855   4.545  29.747  1.00  0.00    -0.624 OA
ATOM    130  OP1   T A   8     -37.090   4.898  28.534  1.00  0.00    -0.624 OA
ATOM    131  O5'   T A   8     -36.348   6.452  30.340  1.00  0.00    -0.287 OA
ATOM    132  C5'   T A   8     -37.580   7.171  30.383  1.00  0.00     0.216 C 
ATOM    133  C4'   T A   8     -37.326   8.615  30.753  1.00  0.00     0.180 C 
ATOM    134  C3'   T A   8     -36.244   9.310  29.935  1.00  0.00     0.198 C 
ATOM    135  O4'   T A   8     -36.854   8.666  32.128  1.00  0.00    -0.353 OA
ATOM    136  C2'   T A   8     -35.687  10.334  30.917  1.00  0.00     0.199 C 
ATOM    137  O3'   T A   8     -36.779   9.923  28.765  1.00  0.00    -0.279 OA
ATOM    138  O2'   T A   8     -36.538  11.461  31.016  1.00  0.00    -0.388 OA
ATOM    139  C1'   T A   8     -35.752   9.550  32.226  1.00  0.00     0.264 C 
ATOM    140 'HO2   T A   8     -37.112  11.437  30.250  1.00  0.00     0.210 HD
ATOM    141  N1    T A   8     -34.543   8.759  32.502  1.00  0.00    -0.280 N 
ATOM    142  C2    T A   8     -33.537   9.353  33.241  1.00  0.00     0.331 A 
ATOM    143  C6    T A   8     -34.416   7.471  32.039  1.00  0.00     0.104 A 
ATOM    144  O2    T A   8     -33.612  10.490  33.672  1.00  0.00    -0.246 OA
ATOM    145  N3    T A   8     -32.436   8.565  33.459  1.00  0.00    -0.275 N 
ATOM    146  H3    T A   8     -31.688   8.979  33.992  1.00  0.00     0.173 HD
ATOM    147  C4    T A   8     -32.244   7.273  33.024  1.00  0.00     0.250 A 
ATOM    148  C5    T A   8     -33.328   6.732  32.271  1.00  0.00     0.092 A 
ATOM    149  O4    T A   8     -31.197   6.690  33.306  1.00  0.00    -0.268 OA
ATOM    150  O2'   T A   7     -37.070   5.271  33.342  1.00  0.00    -0.388 OA
ATOM    151  C1'   T A   7     -35.846   3.432  34.258  1.00  0.00     0.264 C 
ATOM    152 'HO2   T A   7     -37.567   5.353  32.527  1.00  0.00     0.210 HD
ATOM    153  N1    T A   7     -34.452   3.123  34.608  1.00  0.00    -0.280 N 
ATOM    154  C6    T A   7     -33.872   1.924  34.258  1.00  0.00     0.104 A 
ATOM    155  C2    T A   7     -33.739   4.081  35.304  1.00  0.00     0.331 A 
ATOM    156  C5    T A   7     -32.610   1.621  34.574  1.00  0.00     0.092 A 
ATOM    157  C4    T A   7     -31.809   2.559  35.296  1.00  0.00     0.250 A 
ATOM    158  N3    T A   7     -32.448   3.736  35.609  1.00  0.00    -0.275 N 
ATOM    159  O4    T A   7     -30.640   2.395  35.646  1.00  0.00    -0.268 OA
ATOM    160  H3    T A   7     -31.912   4.426  36.113  1.00  0.00     0.173 HD
ATOM    161  O2    T A   7     -34.212   5.154  35.629  1.00  0.00    -0.246 OA
BRANCH 137 162
ATOM    162  P     G A   9     -35.905   9.966  27.416  1.00  0.00     0.408 P 
ATOM    163  OP2   G A   9     -36.380   8.880  26.521  1.00  0.00    -0.624 OA
ATOM    164  OP1   G A   9     -35.911  11.370  26.931  1.00  0.00    -0.624 OA
BRANCH 162 165
ATOM    165  O5'   G A   9     -34.428   9.609  27.896  1.00  0.00    -0.287 OA
BRANCH 165 166
ATOM    166  C5'   G A   9     -33.507  10.633  28.269  1.00  0.00     0.216 C 
ATOM    167  C4'   G A   9     -32.086  10.173  28.031  1.00  0.00     0.180 C 
ATOM    168  C3'   G A   9     -31.727   9.867  26.583  1.00  0.00     0.198 C 
ATOM    169  O4'   G A   9     -31.874   8.917  28.732  1.00  0.00    -0.353 OA
ATOM    170  O3'   G A   9     -31.320  11.041  25.883  1.00  0.00    -0.279 OA
ATOM    171  C2'   G A   9     -30.592   8.860  26.731  1.00  0.00     0.199 C 
ATOM    172  P     G A  10     -31.477  11.114  24.283  1.00  0.00     0.408 P 
ATOM    173  OP1   G A  10     -31.043  12.471  23.862  1.00  0.00    -0.624 OA
ATOM    174  OP2   G A  10     -32.835  10.634  23.920  1.00  0.00    -0.624 OA
ATOM    175  O5'   G A  10     -30.410  10.064  23.736  1.00  0.00    -0.287 OA
ATOM    176  C5'   G A  10     -29.020  10.203  24.032  1.00  0.00     0.216 C 
ATOM    177  C4'   G A  10     -28.253   9.012  23.505  1.00  0.00     0.180 C 
ATOM    178  O4'   G A  10     -28.953   7.795  23.896  1.00  0.00    -0.353 OA
ATOM    179  C3'   G A  10     -28.121   8.946  21.983  1.00  0.00     0.198 C 
ATOM    180  C1'   G A  10     -29.205   7.009  22.753  1.00  0.00     0.262 C 
ATOM    181  C2'   G A  10     -29.230   7.981  21.579  1.00  0.00     0.199 C 
ATOM    182  N9    G A  10     -30.448   6.272  22.954  1.00  0.00    -0.293 N 
ATOM    183  C8    G A  10     -31.567   6.695  23.629  1.00  0.00     0.214 A 
ATOM    184  C4    G A  10     -30.729   5.009  22.493  1.00  0.00     0.187 A 
ATOM    185  N7    G A  10     -32.531   5.814  23.632  1.00  0.00    -0.234 NA
ATOM    186  C5    G A  10     -32.014   4.742  22.915  1.00  0.00     0.173 A 
ATOM    187  C6    G A  10     -32.596   3.489  22.583  1.00  0.00     0.292 A 
ATOM    188  O6    G A  10     -33.721   3.059  22.864  1.00  0.00    -0.265 OA
ATOM    189  N1    G A  10     -31.722   2.701  21.844  1.00  0.00    -0.153 N 
ATOM    190  H1    G A  10     -32.048   1.791  21.557  1.00  0.00     0.187 HD
ATOM    191  C2    G A  10     -30.452   3.065  21.476  1.00  0.00     0.703 A 
ATOM    192  N3    G A  10     -29.898   4.224  21.778  1.00  0.00    -0.044 NA
ATOM    193  N2    G A  10     -29.761   2.166  20.771  1.00  0.00    -0.233 N 
ATOM    194  H22   G A  10     -30.180   1.277  20.531  1.00  0.00     0.174 HD
ATOM    195  H21   G A  10     -28.821   2.380  20.476  1.00  0.00     0.174 HD
ATOM    196  O2'   G A   9     -29.373   9.505  27.052  1.00  0.00    -0.388 OA
ATOM    197  C1'   G A   9     -31.059   8.063  27.949  1.00  0.00     0.262 C 
ATOM    198 'HO2   G A   9     -29.499  10.435  26.869  1.00  0.00     0.210 HD
BRANCH 181 199
ATOM    199  O2'   G A  10     -28.894   7.281  20.395  1.00  0.00    -0.388 OA
ATOM    200 'HO2   G A  10     -28.945   6.347  20.602  1.00  0.00     0.210 HD
ENDBRANCH 181 199
BRANCH 179 201
ATOM    201  O3'   G A  10     -26.833   8.472  21.595  1.00  0.00    -0.279 OA
BRANCH 201 202
ATOM    202  P     T A  11     -25.525   8.979  22.381  1.00  0.00     0.408 P 
ATOM    203  OP2   T A  11     -25.865  10.236  23.095  1.00  0.00    -0.624 OA
ATOM    204  OP1   T A  11     -24.985   7.827  23.145  1.00  0.00    -0.624 OA
BRANCH 202 205
ATOM    205  O5'   T A  11     -24.493   9.337  21.221  1.00  0.00    -0.287 OA
BRANCH 205 206
ATOM    206  C5'   T A  11     -24.207  10.692  20.875  1.00  0.00     0.216 C 
BRANCH 206 207
ATOM    207  C4'   T A  11     -22.827  10.794  20.266  1.00  0.00     0.180 C 
ATOM    208  O4'   T A  11     -22.613  12.161  19.807  1.00  0.00    -0.353 OA
ATOM    209  C1'   T A  11     -21.333  12.609  20.216  1.00  0.00     0.264 C 
ATOM    210  C2'   T A  11     -20.552  11.364  20.632  1.00  0.00     0.199 C 
ATOM    211  N1    T A  11     -21.504  13.590  21.299  1.00  0.00    -0.280 N 
ATOM    212  O2'   T A  11     -20.004  10.758  19.477  1.00  0.00    -0.388 OA
ATOM    213  C3'   T A  11     -21.671  10.516  21.222  1.00  0.00     0.198 C 
ATOM    214 'HO2   T A  11     -20.061   9.812  19.609  1.00  0.00     0.210 HD
ATOM    215  O3'   T A  11     -21.342   9.131  21.263  1.00  0.00    -0.279 OA
ATOM    216  P     C A  12     -20.903   8.455  22.656  1.00  0.00     0.408 P 
ATOM    217  O5'   C A  12     -19.438   9.026  22.916  1.00  0.00    -0.287 OA
ATOM    218  OP2   C A  12     -21.793   8.966  23.730  1.00  0.00    -0.624 OA
ATOM    219  OP1   C A  12     -20.797   6.992  22.425  1.00  0.00    -0.624 OA
ATOM    220  C5'   C A  12     -18.327   8.579  22.140  1.00  0.00     0.216 C 
ATOM    221  C4'   C A  12     -17.094   9.388  22.478  1.00  0.00     0.180 C 
ATOM    222  O4'   C A  12     -17.382  10.799  22.273  1.00  0.00    -0.353 OA
ATOM    223  C3'   C A  12     -16.632   9.305  23.925  1.00  0.00     0.198 C 
ATOM    224  C1'   C A  12     -16.746  11.567  23.280  1.00  0.00     0.264 C 
ATOM    225  C2'   C A  12     -15.876  10.615  24.099  1.00  0.00     0.199 C 
ATOM    226  N1    C A  12     -17.783  12.247  24.074  1.00  0.00    -0.278 N 
ATOM    227  C6    C A  12     -19.098  11.890  23.965  1.00  0.00     0.102 A 
ATOM    228  C2    C A  12     -17.401  13.270  24.948  1.00  0.00     0.352 A 
ATOM    229  C5    C A  12     -20.044  12.508  24.682  1.00  0.00     0.067 A 
ATOM    230  C4    C A  12     -19.626  13.548  25.562  1.00  0.00     0.128 A 
ATOM    231  N3    C A  12     -18.346  13.903  25.679  1.00  0.00    -0.177 NA
ATOM    232  N4    C A  12     -20.522  14.201  26.301  1.00  0.00    -0.384 N 
ATOM    233  H42   C A  12     -20.219  14.938  26.921  1.00  0.00     0.157 HD
ATOM    234  H41   C A  12     -21.502  13.964  26.241  1.00  0.00     0.157 HD
ATOM    235  O2    C A  12     -16.202  13.573  25.034  1.00  0.00    -0.244 OA
ATOM    236  C6    T A  11     -22.749  13.877  21.813  1.00  0.00     0.104 A 
ATOM    237  C2    T A  11     -20.371  14.212  21.790  1.00  0.00     0.331 A 
ATOM    238  C5    T A  11     -22.928  14.749  22.809  1.00  0.00     0.092 A 
ATOM    239  C4    T A  11     -21.806  15.424  23.377  1.00  0.00     0.250 A 
ATOM    240  N3    T A  11     -20.595  15.100  22.810  1.00  0.00    -0.275 N 
ATOM    241  O4    T A  11     -21.838  16.219  24.316  1.00  0.00    -0.268 OA
ATOM    242  H3    T A  11     -19.782  15.566  23.187  1.00  0.00     0.173 HD
ATOM    243  O2    T A  11     -19.256  13.995  21.357  1.00  0.00    -0.246 OA
BRANCH 225 244
ATOM    244  O2'   C A  12     -14.592  10.551  23.506  1.00  0.00    -0.388 OA
ATOM    245 'HO2   C A  12     -14.266  11.449  23.447  1.00  0.00     0.210 HD
ENDBRANCH 225 244
BRANCH 223 246
ATOM    246  O3'   C A  12     -15.806   8.166  24.154  1.00  0.00    -0.279 OA
BRANCH 246 247
ATOM    247  P     T A  13     -16.248   7.062  25.238  1.00  0.00     0.408 P 
ATOM    248  OP2   T A  13     -15.077   6.198  25.536  1.00  0.00    -0.624 OA
ATOM    249  OP1   T A  13     -16.932   7.777  26.345  1.00  0.00    -0.624 OA
BRANCH 247 250
ATOM    250  O5'   T A  13     -17.329   6.178  24.472  1.00  0.00    -0.287 OA
BRANCH 250 251
ATOM    251  C5'   T A  13     -18.609   5.920  25.047  1.00  0.00     0.216 C 
BRANCH 251 252
ATOM    252  C4'   T A  13     -18.455   5.221  26.378  1.00  0.00     0.180 C 
ATOM    253  O4'   T A  13     -18.984   6.077  27.429  1.00  0.00    -0.353 OA
ATOM    254  C1'   T A  13     -19.660   5.286  28.394  1.00  0.00     0.264 C 
ATOM    255  C2'   T A  13     -19.394   3.824  28.042  1.00  0.00     0.199 C 
ATOM    256  O2'   T A  13     -18.190   3.417  28.665  1.00  0.00    -0.388 OA
ATOM    257  C3'   T A  13     -19.228   3.919  26.532  1.00  0.00     0.198 C 
ATOM    258 'HO2   T A  13     -17.662   2.988  27.991  1.00  0.00     0.210 HD
ATOM    259  O3'   T A  13     -18.518   2.809  25.990  1.00  0.00    -0.279 OA
ATOM    260  P     C A  14     -19.322   1.491  25.537  1.00  0.00     0.408 P 
ATOM    261  O5'   C A  14     -19.906   0.907  26.900  1.00  0.00    -0.287 OA
ATOM    262  OP1   C A  14     -18.327   0.525  25.006  1.00  0.00    -0.624 OA
ATOM    263  OP2   C A  14     -20.465   1.910  24.685  1.00  0.00    -0.624 OA
ATOM    264  C5'   C A  14     -19.037   0.431  27.925  1.00  0.00     0.216 C 
ATOM    265  C4'   C A  14     -19.841  -0.054  29.111  1.00  0.00     0.180 C 
ATOM    266  O4'   C A  14     -20.480   1.081  29.758  1.00  0.00    -0.353 OA
ATOM    267  C3'   C A  14     -21.001  -0.985  28.791  1.00  0.00     0.198 C 
ATOM    268  C1'   C A  14     -21.742   0.684  30.273  1.00  0.00     0.264 C 
ATOM    269  C2'   C A  14     -21.883  -0.817  30.020  1.00  0.00     0.199 C 
ATOM    270  N1    C A  14     -22.788   1.490  29.621  1.00  0.00    -0.278 N 
ATOM    271  O2'   C A  14     -21.351  -1.517  31.129  1.00  0.00    -0.388 OA
ATOM    272 'HO2   C A  14     -20.770  -2.191  30.775  1.00  0.00     0.210 HD
ATOM    273  C2    C A  14     -24.011   1.665  30.275  1.00  0.00     0.352 A 
ATOM    274  C6    C A  14     -22.574   2.060  28.397  1.00  0.00     0.102 A 
ATOM    275  O2    C A  14     -24.180   1.140  31.383  1.00  0.00    -0.244 OA
ATOM    276  N3    C A  14     -24.977   2.402  29.683  1.00  0.00    -0.177 NA
ATOM    277  C4    C A  14     -24.757   2.956  28.491  1.00  0.00     0.128 A 
ATOM    278  C5    C A  14     -23.520   2.796  27.801  1.00  0.00     0.067 A 
ATOM    279  N4    C A  14     -25.737   3.678  27.950  1.00  0.00    -0.384 N 
ATOM    280  H42   C A  14     -26.612   3.785  28.443  1.00  0.00     0.157 HD
ATOM    281  H41   C A  14     -25.611   4.116  27.049  1.00  0.00     0.157 HD
ATOM    282  O3'   C A  14     -20.574  -2.331  28.601  1.00  0.00    -0.279 OA
ATOM    283  P     G A  15     -21.487  -3.345  27.748  1.00  0.00     0.408 P 
ATOM    284  OP1   G A  15     -20.751  -4.631  27.659  1.00  0.00    -0.624 OA
ATOM    285  OP2   G A  15     -21.918  -2.658  26.503  1.00  0.00    -0.624 OA
ATOM    286  O5'   G A  15     -22.773  -3.570  28.663  1.00  0.00    -0.287 OA
ATOM    287  C5'   G A  15     -22.654  -4.149  29.962  1.00  0.00     0.216 C 
ATOM    288  C4'   G A  15     -24.018  -4.285  30.602  1.00  0.00     0.180 C 
ATOM    289  O4'   G A  15     -24.508  -2.973  30.983  1.00  0.00    -0.353 OA
ATOM    290  C3'   G A  15     -25.123  -4.825  29.710  1.00  0.00     0.198 C 
ATOM    291  C1'   G A  15     -25.925  -2.965  30.918  1.00  0.00     0.262 C 
ATOM    292  N9    G A  15     -26.344  -1.879  30.036  1.00  0.00    -0.293 N 
ATOM    293  C2'   G A  15     -26.375  -4.345  30.434  1.00  0.00     0.199 C 
ATOM    294  C8    G A  15     -25.584  -1.230  29.095  1.00  0.00     0.214 A 
ATOM    295  C4    G A  15     -27.592  -1.307  29.986  1.00  0.00     0.187 A 
ATOM    296  N7    G A  15     -26.238  -0.298  28.457  1.00  0.00    -0.234 NA
ATOM    297  C5    G A  15     -27.512  -0.337  29.010  1.00  0.00     0.173 A 
ATOM    298  C6    G A  15     -28.666   0.437  28.720  1.00  0.00     0.292 A 
ATOM    299  N1    G A  15     -29.743   0.066  29.517  1.00  0.00    -0.153 N 
ATOM    300  O6    G A  15     -28.799   1.342  27.889  1.00  0.00    -0.265 OA
ATOM    301  H1    G A  15     -30.609   0.565  29.383  1.00  0.00     0.187 HD
ATOM    302  C2    G A  15     -29.715  -0.922  30.468  1.00  0.00     0.703 A 
ATOM    303  N3    G A  15     -28.651  -1.651  30.747  1.00  0.00    -0.044 NA
ATOM    304  N2    G A  15     -30.854  -1.133  31.132  1.00  0.00    -0.233 N 
ATOM    305  H21   G A  15     -30.888  -1.849  31.842  1.00  0.00     0.174 HD
ATOM    306  H22   G A  15     -31.676  -0.582  30.923  1.00  0.00     0.174 HD
ATOM    307  O2'   G A  15     -26.654  -5.152  31.563  1.00  0.00    -0.388 OA
ATOM    308 'HO2   G A  15     -26.190  -5.979  31.430  1.00  0.00     0.210 HD
ATOM    309  O3'   G A  15     -25.070  -6.244  29.591  1.00  0.00    -0.279 OA
ATOM    310  P     C A  16     -25.731  -6.963  28.313  1.00  0.00     0.408 P 
ATOM    311  OP2   C A  16     -25.185  -6.334  27.085  1.00  0.00    -0.624 OA
ATOM    312  O5'   C A  16     -27.278  -6.589  28.417  1.00  0.00    -0.287 OA
ATOM    313  OP1   C A  16     -25.596  -8.428  28.510  1.00  0.00    -0.624 OA
ATOM    314  C5'   C A  16     -28.083  -7.090  29.483  1.00  0.00     0.216 C 
ATOM    315  C4'   C A  16     -29.480  -6.520  29.397  1.00  0.00     0.180 C 
ATOM    316  O4'   C A  16     -29.430  -5.081  29.571  1.00  0.00    -0.353 OA
ATOM    317  C3'   C A  16     -30.184  -6.687  28.059  1.00  0.00     0.198 C 
ATOM    318  C1'   C A  16     -30.497  -4.482  28.855  1.00  0.00     0.264 C 
ATOM    319  N1    C A  16     -29.944  -3.456  27.957  1.00  0.00    -0.278 N 
ATOM    320  C2'   C A  16     -31.248  -5.595  28.119  1.00  0.00     0.199 C 
ATOM    321  C2    C A  16     -30.784  -2.437  27.501  1.00  0.00     0.352 A 
ATOM    322  C6    C A  16     -28.633  -3.493  27.569  1.00  0.00     0.102 A 
ATOM    323  N3    C A  16     -30.289  -1.492  26.674  1.00  0.00    -0.177 NA
ATOM    324  O2    C A  16     -31.967  -2.424  27.867  1.00  0.00    -0.244 OA
ATOM    325  C4    C A  16     -29.009  -1.534  26.304  1.00  0.00     0.128 A 
ATOM    326  C5    C A  16     -28.126  -2.560  26.752  1.00  0.00     0.067 A 
ATOM    327  N4    C A  16     -28.565  -0.576  25.493  1.00  0.00    -0.384 N 
ATOM    328  H41   C A  16     -27.601  -0.570  25.189  1.00  0.00     0.157 HD
ATOM    329  H42   C A  16     -29.198   0.145  25.177  1.00  0.00     0.157 HD
BRANCH 254 330
ATOM    330  N1    T A  13     -21.085   5.647  28.375  1.00  0.00    -0.280 N 
ATOM    331  C6    T A  13     -21.655   6.244  27.275  1.00  0.00     0.104 A 
ATOM    332  C5    T A  13     -22.945   6.588  27.236  1.00  0.00     0.092 A 
ATOM    333  C4    T A  13     -23.788   6.331  28.359  1.00  0.00     0.250 A 
ATOM    334  N3    T A  13     -23.157   5.728  29.422  1.00  0.00    -0.275 N 
ATOM    335  O4    T A  13     -24.986   6.599  28.443  1.00  0.00    -0.268 OA
ATOM    336  C2    T A  13     -21.838   5.365  29.501  1.00  0.00     0.331 A 
ATOM    337  H3    T A  13     -23.724   5.527  30.232  1.00  0.00     0.173 HD
ATOM    338  O2    T A  13     -21.373   4.834  30.493  1.00  0.00    -0.246 OA
ENDBRANCH 254 330
BRANCH 320 339
ATOM    339  O2'   C A  16     -32.348  -5.999  28.913  1.00  0.00    -0.388 OA
ATOM    340 'HO2   C A  16     -33.137  -5.827  28.399  1.00  0.00     0.210 HD
ENDBRANCH 320 339
BRANCH 317 341
ATOM    341  O3'   C A  16     -30.748  -7.987  27.914  1.00  0.00    -0.279 OA
BRANCH 341 342
ATOM    342  P     T A  17     -30.018  -9.073  26.976  1.00  0.00     0.408 P 
ATOM    343  OP2   T A  17     -31.055  -9.777  26.180  1.00  0.00    -0.624 OA
ATOM    344  OP1   T A  17     -28.902  -8.381  26.281  1.00  0.00    -0.624 OA
BRANCH 342 345
ATOM    345  O5'   T A  17     -29.393 -10.115  28.008  1.00  0.00    -0.287 OA
BRANCH 345 346
ATOM    346  C5'   T A  17     -28.023 -10.501  27.924  1.00  0.00     0.216 C 
BRANCH 346 347
ATOM    347  C4'   T A  17     -27.732 -11.619  28.900  1.00  0.00     0.180 C 
ATOM    348  O4'   T A  17     -26.793 -12.547  28.295  1.00  0.00    -0.353 OA
ATOM    349  C1'   T A  17     -25.943 -13.083  29.295  1.00  0.00     0.264 C 
ATOM    350  N1    T A  17     -24.552 -12.778  28.931  1.00  0.00    -0.280 N 
ATOM    351  C2'   T A  17     -26.374 -12.492  30.639  1.00  0.00     0.199 C 
ATOM    352  C2    T A  17     -23.578 -13.701  29.267  1.00  0.00     0.331 A 
ATOM    353  C6    T A  17     -24.226 -11.611  28.279  1.00  0.00     0.104 A 
ATOM    354  N3    T A  17     -22.302 -13.358  28.903  1.00  0.00    -0.275 N 
ATOM    355  O2    T A  17     -23.825 -14.745  29.844  1.00  0.00    -0.246 OA
ATOM    356  C4    T A  17     -21.908 -12.215  28.248  1.00  0.00     0.250 A 
ATOM    357  H3    T A  17     -21.569 -14.008  29.152  1.00  0.00     0.173 HD
ATOM    358  C5    T A  17     -22.970 -11.310  27.936  1.00  0.00     0.092 A 
ATOM    359  O4    T A  17     -20.716 -12.049  27.988  1.00  0.00    -0.268 OA
ATOM    360  C3'   T A  17     -27.054 -11.202  30.197  1.00  0.00     0.198 C 
ATOM    361  O2'   T A  17     -27.302 -13.373  31.244  1.00  0.00    -0.388 OA
ATOM    362 'HO2   T A  17     -28.101 -12.868  31.399  1.00  0.00     0.210 HD
BRANCH 360 363
ATOM    363  O3'   T A  17     -27.999 -10.727  31.152  1.00  0.00    -0.279 OA
BRANCH 363 364
ATOM    364  P     T A  18     -27.518  -9.752  32.336  1.00  0.00     0.408 P 
ATOM    365  OP2   T A  18     -26.997 -10.585  33.450  1.00  0.00    -0.624 OA
ATOM    366  OP1   T A  18     -26.648  -8.713  31.728  1.00  0.00    -0.624 OA
BRANCH 364 367
ATOM    367  O5'   T A  18     -28.862  -9.052  32.829  1.00  0.00    -0.287 OA
BRANCH 367 368
ATOM    368  C5'   T A  18     -28.893  -7.660  33.142  1.00  0.00     0.216 C 
ATOM    369  C4'   T A  18     -30.322  -7.174  33.208  1.00  0.00     0.180 C 
ATOM    370  C3'   T A  18     -31.266  -8.032  34.040  1.00  0.00     0.198 C 
ATOM    371  O4'   T A  18     -30.890  -7.202  31.871  1.00  0.00    -0.353 OA
ATOM    372  C2'   T A  18     -32.623  -7.740  33.411  1.00  0.00     0.199 C 
ATOM    373  O3'   T A  18     -31.219  -7.675  35.418  1.00  0.00    -0.279 OA
ATOM    374  C1'   T A  18     -32.249  -7.598  31.935  1.00  0.00     0.264 C 
ATOM    375  O2'   T A  18     -33.143  -6.507  33.869  1.00  0.00    -0.388 OA
ATOM    376  N1    T A  18     -32.404  -8.841  31.165  1.00  0.00    -0.280 N 
ATOM    377  C6    T A  18     -31.505  -9.876  31.291  1.00  0.00     0.104 A 
ATOM    378  C2    T A  18     -33.486  -8.937  30.310  1.00  0.00     0.331 A 
ATOM    379  C5    T A  18     -31.630 -11.018  30.610  1.00  0.00     0.092 A 
ATOM    380  C4    T A  18     -32.726 -11.198  29.710  1.00  0.00     0.250 A 
ATOM    381  O4    T A  18     -32.947 -12.200  29.031  1.00  0.00    -0.268 OA
ATOM    382  N3    T A  18     -33.583 -10.124  29.628  1.00  0.00    -0.275 N 
ATOM    383  H3    T A  18     -34.369 -10.218  29.003  1.00  0.00     0.173 HD
ATOM    384  O2    T A  18     -34.298  -8.042  30.164  1.00  0.00    -0.246 OA
ATOM    385 'HO2   T A  18     -32.653  -6.275  34.658  1.00  0.00     0.210 HD
ATOM    386  P     T A  19     -30.296  -8.517  36.434  1.00  0.00     0.408 P 
ATOM    387  O5'   T A  19     -31.346  -9.288  37.352  1.00  0.00    -0.287 OA
ATOM    388  OP2   T A  19     -29.519  -9.525  35.668  1.00  0.00    -0.624 OA
ATOM    389  OP1   T A  19     -29.580  -7.537  37.290  1.00  0.00    -0.624 OA
ATOM    390  C5'   T A  19     -32.337 -10.143  36.780  1.00  0.00     0.216 C 
ATOM    391  C4'   T A  19     -33.713  -9.739  37.258  1.00  0.00     0.180 C 
ATOM    392  O4'   T A  19     -33.786  -9.956  38.695  1.00  0.00    -0.353 OA
ATOM    393  C3'   T A  19     -34.070  -8.270  37.049  1.00  0.00     0.198 C 
ATOM    394  C1'   T A  19     -33.991  -8.723  39.355  1.00  0.00     0.264 C 
ATOM    395  N1    T A  19     -33.179  -8.713  40.580  1.00  0.00    -0.280 N 
ATOM    396  C2'   T A  19     -33.632  -7.626  38.358  1.00  0.00     0.199 C 
ATOM    397  C2    T A  19     -33.825  -8.486  41.782  1.00  0.00     0.331 A 
ATOM    398  C6    T A  19     -31.820  -8.921  40.536  1.00  0.00     0.104 A 
ATOM    399  O2    T A  19     -35.026  -8.299  41.863  1.00  0.00    -0.246 OA
ATOM    400  N3    T A  19     -33.013  -8.487  42.887  1.00  0.00    -0.275 N 
ATOM    401  H3    T A  19     -33.465  -8.323  43.773  1.00  0.00     0.173 HD
ATOM    402  C4    T A  19     -31.653  -8.686  42.914  1.00  0.00     0.250 A 
ATOM    403  C5    T A  19     -31.059  -8.914  41.635  1.00  0.00     0.092 A 
ATOM    404  O4    T A  19     -31.061  -8.659  43.993  1.00  0.00    -0.268 OA
ATOM    405  O2'   T A  19     -34.404  -6.475  38.648  1.00  0.00    -0.388 OA
ATOM    406 'HO2   T A  19     -35.226  -6.567  38.164  1.00  0.00     0.210 HD
ATOM    407  O3'   T A  19     -35.467  -8.102  36.813  1.00  0.00    -0.279 OA
ATOM    408  P     G A  20     -35.997  -7.794  35.327  1.00  0.00     0.408 P 
ATOM    409  O5'   G A  20     -37.573  -8.009  35.429  1.00  0.00    -0.287 OA
ATOM    410  OP1   G A  20     -35.448  -8.842  34.430  1.00  0.00    -0.624 OA
ATOM    411  OP2   G A  20     -35.740  -6.362  35.031  1.00  0.00    -0.624 OA
ATOM    412  C5'   G A  20     -38.128  -8.968  36.327  1.00  0.00     0.216 C 
ATOM    413  C4'   G A  20     -39.561  -9.266  35.951  1.00  0.00     0.180 C 
ATOM    414  C3'   G A  20     -39.753  -9.876  34.566  1.00  0.00     0.198 C 
ATOM    415  O4'   G A  20     -40.303  -8.016  35.937  1.00  0.00    -0.353 OA
ATOM    416  O3'   G A  20     -40.858 -10.778  34.542  1.00  0.00    -0.279 OA
ATOM    417  C2'   G A  20     -39.981  -8.659  33.677  1.00  0.00     0.199 C 
ATOM    418  P     G A  21     -40.636 -12.302  34.081  1.00  0.00     0.408 P 
ATOM    419  OP1   G A  21     -41.893 -12.746  33.428  1.00  0.00    -0.624 OA
ATOM    420  O5'   G A  21     -39.494 -12.213  32.972  1.00  0.00    -0.287 OA
ATOM    421  OP2   G A  21     -40.104 -13.064  35.239  1.00  0.00    -0.624 OA
ATOM    422  C5'   G A  21     -39.713 -11.521  31.744  1.00  0.00     0.216 C 
ATOM    423  C4'   G A  21     -39.529 -12.459  30.573  1.00  0.00     0.180 C 
ATOM    424  C3'   G A  21     -40.508 -12.244  29.420  1.00  0.00     0.198 C 
ATOM    425  O4'   G A  21     -39.746 -13.827  31.026  1.00  0.00    -0.353 OA
ATOM    426  C2'   G A  21     -41.584 -13.293  29.677  1.00  0.00     0.199 C 
ATOM    427  O3'   G A  21     -39.878 -12.429  28.154  1.00  0.00    -0.279 OA
ATOM    428  C1'   G A  21     -40.743 -14.435  30.234  1.00  0.00     0.262 C 
ATOM    429  O2'   G A  21     -42.186 -13.716  28.468  1.00  0.00    -0.388 OA
ATOM    430  N9    G A  21     -41.471 -15.392  31.063  1.00  0.00    -0.293 N 
ATOM    431  C8    G A  21     -42.599 -15.156  31.811  1.00  0.00     0.214 A 
ATOM    432  C4    G A  21     -41.155 -16.716  31.246  1.00  0.00     0.187 A 
ATOM    433  N7    G A  21     -43.023 -16.213  32.449  1.00  0.00    -0.234 NA
ATOM    434  C5    G A  21     -42.119 -17.207  32.101  1.00  0.00     0.173 A 
ATOM    435  C6    G A  21     -42.059 -18.574  32.484  1.00  0.00     0.292 A 
ATOM    436  O6    G A  21     -42.819 -19.200  33.232  1.00  0.00    -0.265 OA
ATOM    437  N1    G A  21     -40.978 -19.222  31.898  1.00  0.00    -0.153 N 
ATOM    438  H1    G A  21     -40.858 -20.198  32.116  1.00  0.00     0.187 HD
ATOM    439  C2    G A  21     -40.071 -18.635  31.055  1.00  0.00     0.703 A 
ATOM    440  N2    G A  21     -39.098 -19.425  30.593  1.00  0.00    -0.233 N 
ATOM    441  N3    G A  21     -40.112 -17.366  30.689  1.00  0.00    -0.044 NA
ATOM    442  H22   G A  21     -39.051 -20.396  30.863  1.00  0.00     0.174 HD
ATOM    443  H21   G A  21     -38.406 -19.036  29.968  1.00  0.00     0.174 HD
ATOM    444 'HO2   G A  21     -41.619 -13.407  27.760  1.00  0.00     0.210 HD
ATOM    445  P     G A  22     -39.092 -11.206  27.464  1.00  0.00     0.408 P 
ATOM    446  OP1   G A  22     -39.163 -11.413  25.995  1.00  0.00    -0.624 OA
ATOM    447  O5'   G A  22     -39.968  -9.924  27.825  1.00  0.00    -0.287 OA
ATOM    448  OP2   G A  22     -37.768 -11.066  28.121  1.00  0.00    -0.624 OA
ATOM    449  C5'   G A  22     -41.283  -9.755  27.297  1.00  0.00     0.216 C 
ATOM    450  C4'   G A  22     -41.855  -8.429  27.741  1.00  0.00     0.180 C 
ATOM    451  O4'   G A  22     -41.734  -8.329  29.187  1.00  0.00    -0.353 OA
ATOM    452  C3'   G A  22     -41.139  -7.200  27.197  1.00  0.00     0.198 C 
ATOM    453  C1'   G A  22     -41.288  -7.034  29.544  1.00  0.00     0.262 C 
ATOM    454  C2'   G A  22     -41.366  -6.164  28.291  1.00  0.00     0.199 C 
ATOM    455  N9    G A  22     -39.942  -7.146  30.098  1.00  0.00    -0.293 N 
ATOM    456  O2'   G A  22     -42.664  -5.605  28.203  1.00  0.00    -0.388 OA
ATOM    457 'HO2   G A  22     -42.970  -5.768  27.310  1.00  0.00     0.210 HD
ATOM    458  C8    G A  22     -39.187  -8.288  30.214  1.00  0.00     0.214 A 
ATOM    459  C4    G A  22     -39.180  -6.125  30.609  1.00  0.00     0.187 A 
ATOM    460  N7    G A  22     -38.017  -8.078  30.752  1.00  0.00    -0.234 NA
ATOM    461  C5    G A  22     -37.999  -6.713  31.009  1.00  0.00     0.173 A 
ATOM    462  C6    G A  22     -36.991  -5.899  31.589  1.00  0.00     0.292 A 
ATOM    463  O6    G A  22     -35.877  -6.231  32.007  1.00  0.00    -0.265 OA
ATOM    464  N1    G A  22     -37.387  -4.569  31.659  1.00  0.00    -0.153 N 
ATOM    465  C2    G A  22     -38.595  -4.083  31.229  1.00  0.00     0.703 A 
ATOM    466  H1    G A  22     -36.732  -3.917  32.059  1.00  0.00     0.187 HD
ATOM    467  N3    G A  22     -39.543  -4.827  30.690  1.00  0.00    -0.044 NA
ATOM    468  N2    G A  22     -38.788  -2.770  31.382  1.00  0.00    -0.233 N 
ATOM    469  H21   G A  22     -39.660  -2.363  31.080  1.00  0.00     0.174 HD
ATOM    470  H22   G A  22     -38.072  -2.192  31.795  1.00  0.00     0.174 HD
ATOM    471  O3'   G A  22     -41.684  -6.795  25.943  1.00  0.00    -0.279 OA
ATOM    472  P     T A  23     -40.704  -6.312  24.763  1.00  0.00     0.408 P 
ATOM    473  O5'   T A  23     -39.886  -5.107  25.409  1.00  0.00    -0.287 OA
ATOM    474  OP2   T A  23     -39.753  -7.412  24.463  1.00  0.00    -0.624 OA
ATOM    475  OP1   T A  23     -41.556  -5.762  23.679  1.00  0.00    -0.624 OA
ATOM    476  C5'   T A  23     -40.548  -3.927  25.861  1.00  0.00     0.216 C 
ATOM    477  C4'   T A  23     -39.568  -3.018  26.564  1.00  0.00     0.180 C 
ATOM    478  C3'   T A  23     -38.321  -2.665  25.766  1.00  0.00     0.198 C 
ATOM    479  O4'   T A  23     -39.065  -3.694  27.750  1.00  0.00    -0.353 OA
ATOM    480  O3'   T A  23     -38.546  -1.544  24.916  1.00  0.00    -0.279 OA
ATOM    481  C2'   T A  23     -37.300  -2.378  26.858  1.00  0.00     0.199 C 
ATOM    482  P     G A  24     -38.113  -1.612  23.369  1.00  0.00     0.408 P 
ATOM    483  OP2   G A  24     -38.440  -2.963  22.843  1.00  0.00    -0.624 OA
ATOM    484  OP1   G A  24     -38.674  -0.410  22.701  1.00  0.00    -0.624 OA
ATOM    485  O5'   G A  24     -36.527  -1.463  23.407  1.00  0.00    -0.287 OA
ATOM    486  C5'   G A  24     -35.909  -0.385  24.108  1.00  0.00     0.216 C 
ATOM    487  C4'   G A  24     -34.434  -0.657  24.288  1.00  0.00     0.180 C 
ATOM    488  O4'   G A  24     -34.260  -1.715  25.269  1.00  0.00    -0.353 OA
ATOM    489  C3'   G A  24     -33.703  -1.172  23.057  1.00  0.00     0.198 C 
ATOM    490  C1'   G A  24     -33.145  -2.514  24.913  1.00  0.00     0.262 C 
ATOM    491  C2'   G A  24     -32.508  -1.890  23.671  1.00  0.00     0.199 C 
ATOM    492  N9    G A  24     -33.605  -3.884  24.706  1.00  0.00    -0.293 N 
ATOM    493  O2'   G A  24     -31.516  -0.969  24.083  1.00  0.00    -0.388 OA
ATOM    494 'HO2   G A  24     -31.694  -0.147  23.624  1.00  0.00     0.210 HD
ATOM    495  C4    G A  24     -32.814  -4.999  24.561  1.00  0.00     0.187 A 
ATOM    496  C8    G A  24     -34.904  -4.319  24.616  1.00  0.00     0.214 A 
ATOM    497  C5    G A  24     -33.690  -6.051  24.394  1.00  0.00     0.173 A 
ATOM    498  N3    G A  24     -31.465  -5.021  24.584  1.00  0.00    -0.044 NA
ATOM    499  C6    G A  24     -33.162  -7.358  24.217  1.00  0.00     0.292 A 
ATOM    500  N7    G A  24     -35.006  -5.607  24.431  1.00  0.00    -0.234 NA
ATOM    501  O6    G A  24     -33.771  -8.422  24.055  1.00  0.00    -0.265 OA
ATOM    502  N1    G A  24     -31.773  -7.355  24.244  1.00  0.00    -0.153 N 
ATOM    503  H1    G A  24     -31.307  -8.242  24.125  1.00  0.00     0.187 HD
ATOM    504  C2    G A  24     -30.989  -6.243  24.417  1.00  0.00     0.703 A 
ATOM    505  N2    G A  24     -29.670  -6.445  24.412  1.00  0.00    -0.233 N 
ATOM    506  H22   G A  24     -29.297  -7.376  24.286  1.00  0.00     0.174 HD
ATOM    507  H21   G A  24     -29.048  -5.660  24.535  1.00  0.00     0.174 HD
ATOM    508  O3'   G A  24     -33.319  -0.109  22.190  1.00  0.00    -0.279 OA
ATOM    509  P     C A  25     -33.156  -0.383  20.613  1.00  0.00     0.408 P 
ATOM    510  OP2   C A  25     -34.327  -1.169  20.146  1.00  0.00    -0.624 OA
ATOM    511  OP1   C A  25     -32.844   0.919  19.970  1.00  0.00    -0.624 OA
ATOM    512  O5'   C A  25     -31.865  -1.310  20.513  1.00  0.00    -0.287 OA
ATOM    513  C5'   C A  25     -30.595  -0.849  20.972  1.00  0.00     0.216 C 
ATOM    514  C1'   T A  23     -37.681  -3.428  27.901  1.00  0.00     0.264 C 
ATOM    515  O2'   T A  23     -37.495  -1.092  27.416  1.00  0.00    -0.388 OA
ATOM    516  N1    T A  23     -36.947  -4.695  27.761  1.00  0.00    -0.280 N 
ATOM    517  C6    T A  23     -37.303  -5.625  26.810  1.00  0.00     0.104 A 
ATOM    518  C2    T A  23     -35.881  -4.919  28.613  1.00  0.00     0.331 A 
ATOM    519  C5    T A  23     -36.643  -6.776  26.654  1.00  0.00     0.092 A 
ATOM    520  C4    T A  23     -35.523  -7.079  27.491  1.00  0.00     0.250 A 
ATOM    521  O4    T A  23     -34.814  -8.082  27.415  1.00  0.00    -0.268 OA
ATOM    522  N3    T A  23     -35.229  -6.111  28.424  1.00  0.00    -0.275 N 
ATOM    523  H3    T A  23     -34.459  -6.306  29.046  1.00  0.00     0.173 HD
ATOM    524  O2    T A  23     -35.540  -4.124  29.471  1.00  0.00    -0.246 OA
ATOM    525 'HO2   T A  23     -37.946  -0.570  26.751  1.00  0.00     0.210 HD
ATOM    526  C1'   G A  20     -40.740  -7.730  34.623  1.00  0.00     0.262 C 
ATOM    527  O2'   G A  20     -40.825  -8.972  32.586  1.00  0.00    -0.388 OA
ATOM    528  N9    G A  20     -40.511  -6.313  34.361  1.00  0.00    -0.293 N 
ATOM    529  C8    G A  20     -39.307  -5.652  34.379  1.00  0.00     0.214 A 
ATOM    530  C4    G A  20     -41.463  -5.375  34.045  1.00  0.00     0.187 A 
ATOM    531  N7    G A  20     -39.414  -4.382  34.099  1.00  0.00    -0.234 NA
ATOM    532  C5    G A  20     -40.772  -4.192  33.885  1.00  0.00     0.173 A 
ATOM    533  C6    G A  20     -41.496  -3.020  33.545  1.00  0.00     0.292 A 
ATOM    534  N1    G A  20     -42.858  -3.276  33.425  1.00  0.00    -0.153 N 
ATOM    535  O6    G A  20     -41.068  -1.875  33.357  1.00  0.00    -0.265 OA
ATOM    536  H1    G A  20     -43.452  -2.499  33.185  1.00  0.00     0.187 HD
ATOM    537  C2    G A  20     -43.447  -4.501  33.608  1.00  0.00     0.703 A 
ATOM    538  N3    G A  20     -42.788  -5.600  33.923  1.00  0.00    -0.044 NA
ATOM    539  N2    G A  20     -44.773  -4.546  33.451  1.00  0.00    -0.233 N 
ATOM    540  H21   G A  20     -45.252  -5.426  33.576  1.00  0.00     0.174 HD
ATOM    541  H22   G A  20     -45.291  -3.714  33.210  1.00  0.00     0.174 HD
ATOM    542 'HO2   G A  20     -41.413  -9.668  32.880  1.00  0.00     0.210 HD
BRANCH 513 543
ATOM    543  C4'   C A  25     -29.535  -1.897  20.722  1.00  0.00     0.180 C 
ATOM    544  C3'   C A  25     -28.374  -1.468  19.836  1.00  0.00     0.198 C 
ATOM    545  C2'   C A  25     -27.868  -2.804  19.311  1.00  0.00     0.199 C 
ATOM    546  C1'   C A  25     -29.189  -3.536  19.076  1.00  0.00     0.264 C 
ATOM    547  O4'   C A  25     -30.127  -3.015  20.004  1.00  0.00    -0.353 OA
BRANCH 544 548
ATOM    548  O3'   C A  25     -27.378  -0.755  20.564  1.00  0.00    -0.279 OA
BRANCH 548 549
ATOM    549  P     G A  26     -27.384  -0.794  22.172  1.00  0.00     0.408 P 
ATOM    550  OP2   G A  26     -27.995   0.463  22.673  1.00  0.00    -0.624 OA
ATOM    551  OP1   G A  26     -27.962  -2.102  22.576  1.00  0.00    -0.624 OA
BRANCH 549 552
ATOM    552  O5'   G A  26     -25.840  -0.791  22.565  1.00  0.00    -0.287 OA
BRANCH 552 553
ATOM    553  C5'   G A  26     -25.376  -0.069  23.705  1.00  0.00     0.216 C 
ATOM    554  C4'   G A  26     -24.206   0.813  23.331  1.00  0.00     0.180 C 
ATOM    555  C3'   G A  26     -24.430   1.768  22.170  1.00  0.00     0.198 C 
ATOM    556  O4'   G A  26     -23.102  -0.009  22.870  1.00  0.00    -0.353 OA
ATOM    557  C2'   G A  26     -23.002   2.089  21.750  1.00  0.00     0.199 C 
ATOM    558  O3'   G A  26     -25.158   2.930  22.559  1.00  0.00    -0.279 OA
ATOM    559  O2'   G A  26     -22.404   3.016  22.636  1.00  0.00    -0.388 OA
ATOM    560  C1'   G A  26     -22.327   0.729  21.937  1.00  0.00     0.262 C 
ATOM    561 'HO2   G A  26     -23.119   3.492  23.058  1.00  0.00     0.210 HD
ATOM    562  N9    G A  26     -22.225  -0.041  20.701  1.00  0.00    -0.293 N 
ATOM    563  C4    G A  26     -21.320   0.163  19.688  1.00  0.00     0.187 A 
ATOM    564  C8    G A  26     -23.006  -1.101  20.314  1.00  0.00     0.214 A 
ATOM    565  N3    G A  26     -20.363   1.114  19.660  1.00  0.00    -0.044 NA
ATOM    566  C5    G A  26     -21.609  -0.796  18.740  1.00  0.00     0.173 A 
ATOM    567  C2    G A  26     -19.647   1.060  18.552  1.00  0.00     0.703 A 
ATOM    568  N2    G A  26     -18.654   1.933  18.362  1.00  0.00    -0.233 N 
ATOM    569  N1    G A  26     -19.851   0.148  17.548  1.00  0.00    -0.153 N 
ATOM    570  H21   G A  26     -18.463   2.626  19.071  1.00  0.00     0.174 HD
ATOM    571  H22   G A  26     -18.098   1.903  17.519  1.00  0.00     0.174 HD
ATOM    572  H1    G A  26     -19.244   0.195  16.743  1.00  0.00     0.187 HD
ATOM    573  C6    G A  26     -20.831  -0.839  17.554  1.00  0.00     0.292 A 
ATOM    574  O6    G A  26     -20.930  -1.611  16.594  1.00  0.00    -0.265 OA
ATOM    575  N7    G A  26     -22.674  -1.587  19.149  1.00  0.00    -0.234 NA
ATOM    576  P     A A  27     -25.893   3.823  21.441  1.00  0.00     0.408 P 
ATOM    577  O5'   A A  27     -24.702   4.377  20.540  1.00  0.00    -0.287 OA
ATOM    578  OP2   A A  27     -26.734   2.929  20.604  1.00  0.00    -0.624 OA
ATOM    579  OP1   A A  27     -26.519   4.973  22.141  1.00  0.00    -0.624 OA
ATOM    580  C5'   A A  27     -23.782   5.340  21.052  1.00  0.00     0.216 C 
ATOM    581  C4'   A A  27     -22.807   5.763  19.976  1.00  0.00     0.180 C 
ATOM    582  C3'   A A  27     -23.416   6.166  18.642  1.00  0.00     0.198 C 
ATOM    583  O4'   A A  27     -21.954   4.641  19.625  1.00  0.00    -0.353 OA
ATOM    584  O3'   A A  27     -23.923   7.498  18.663  1.00  0.00    -0.279 OA
ATOM    585  C2'   A A  27     -22.232   6.009  17.697  1.00  0.00     0.199 C 
ATOM    586  P     G A  28     -25.003   7.957  17.562  1.00  0.00     0.408 P 
ATOM    587  OP2   G A  28     -26.112   6.970  17.552  1.00  0.00    -0.624 OA
ATOM    588  OP1   G A  28     -25.300   9.392  17.808  1.00  0.00    -0.624 OA
ATOM    589  O5'   G A  28     -24.218   7.842  16.179  1.00  0.00    -0.287 OA
ATOM    590  C5'   G A  28     -23.370   8.896  15.727  1.00  0.00     0.216 C 
ATOM    591  C4'   G A  28     -22.488   8.416  14.596  1.00  0.00     0.180 C 
ATOM    592  C3'   G A  28     -23.130   8.379  13.219  1.00  0.00     0.198 C 
ATOM    593  O4'   G A  28     -22.111   7.033  14.816  1.00  0.00    -0.353 OA
ATOM    594  C2'   G A  28     -22.217   7.416  12.465  1.00  0.00     0.199 C 
ATOM    595  C1'   G A  28     -21.852   6.416  13.565  1.00  0.00     0.262 C 
ATOM    596  N9    G A  28     -22.611   5.170  13.495  1.00  0.00    -0.293 N 
ATOM    597  C8    G A  28     -23.528   4.700  14.402  1.00  0.00     0.214 A 
ATOM    598  C4    G A  28     -22.542   4.230  12.494  1.00  0.00     0.187 A 
ATOM    599  N7    G A  28     -24.040   3.546  14.068  1.00  0.00    -0.234 NA
ATOM    600  C5    G A  28     -23.425   3.237  12.862  1.00  0.00     0.173 A 
ATOM    601  C6    G A  28     -23.575   2.108  12.013  1.00  0.00     0.292 A 
ATOM    602  O6    G A  28     -24.304   1.121  12.163  1.00  0.00    -0.265 OA
ATOM    603  N1    G A  28     -22.762   2.201  10.889  1.00  0.00    -0.153 N 
ATOM    604  C2    G A  28     -21.914   3.242  10.616  1.00  0.00     0.703 A 
ATOM    605  H1    G A  28     -22.804   1.443  10.226  1.00  0.00     0.187 HD
ATOM    606  N3    G A  28     -21.760   4.297  11.396  1.00  0.00    -0.044 NA
ATOM    607  O2'   A A  27     -21.332   7.096  17.819  1.00  0.00    -0.388 OA
ATOM    608  C1'   A A  27     -21.564   4.756  18.265  1.00  0.00     0.262 C 
ATOM    609 'HO2   A A  27     -21.857   7.894  17.769  1.00  0.00     0.210 HD
ATOM    610  N9    A A  27     -21.943   3.528  17.567  1.00  0.00    -0.294 N 
ATOM    611  C4    A A  27     -21.427   3.086  16.373  1.00  0.00     0.167 A 
ATOM    612  C8    A A  27     -22.870   2.589  17.945  1.00  0.00     0.214 A 
ATOM    613  N3    A A  27     -20.486   3.682  15.620  1.00  0.00    -0.222 NA
ATOM    614  C5    A A  27     -22.078   1.895  16.099  1.00  0.00     0.149 A 
ATOM    615  C2    A A  27     -20.235   2.965  14.529  1.00  0.00     0.237 A 
ATOM    616  N1    A A  27     -20.778   1.805  14.132  1.00  0.00    -0.222 NA
ATOM    617  C6    A A  27     -21.721   1.233  14.911  1.00  0.00     0.155 A 
ATOM    618  N6    A A  27     -22.259   0.080  14.516  1.00  0.00    -0.382 N 
ATOM    619  H62   A A  27     -21.965  -0.349  13.649  1.00  0.00     0.157 HD
ATOM    620  H61   A A  27     -22.967  -0.364  15.084  1.00  0.00     0.157 HD
ATOM    621  N7    A A  27     -22.987   1.592  17.103  1.00  0.00    -0.236 NA
BRANCH 592 622
ATOM    622  O3'   G A  28     -23.174   9.671  12.619  1.00  0.00    -0.279 OA
BRANCH 622 623
ATOM    623  P     A A  29     -24.588  10.300  12.175  1.00  0.00     0.408 P 
ATOM    624  OP2   A A  29     -24.744  10.119  10.709  1.00  0.00    -0.624 OA
ATOM    625  OP1   A A  29     -25.619   9.755  13.095  1.00  0.00    -0.624 OA
BRANCH 623 626
ATOM    626  O5'   A A  29     -24.429  11.857  12.475  1.00  0.00    -0.287 OA
BRANCH 626 627
ATOM    627  C5'   A A  29     -23.218  12.380  13.017  1.00  0.00     0.216 C 
BRANCH 627 628
ATOM    628  C4'   A A  29     -23.257  12.333  14.528  1.00  0.00     0.180 C 
ATOM    629  C3'   A A  29     -23.432  13.673  15.228  1.00  0.00     0.198 C 
ATOM    630  O3'   A A  29     -24.799  14.070  15.277  1.00  0.00    -0.279 OA
ATOM    631  C2'   A A  29     -22.858  13.391  16.613  1.00  0.00     0.199 C 
ATOM    632  P     G A  30     -25.173  15.618  15.510  1.00  0.00     0.408 P 
ATOM    633  OP1   G A  30     -26.655  15.719  15.506  1.00  0.00    -0.624 OA
ATOM    634  O5'   G A  30     -24.661  15.924  16.988  1.00  0.00    -0.287 OA
ATOM    635  OP2   G A  30     -24.381  16.440  14.560  1.00  0.00    -0.624 OA
ATOM    636  C5'   G A  30     -25.228  15.256  18.115  1.00  0.00     0.216 C 
ATOM    637  C4'   G A  30     -24.764  15.907  19.397  1.00  0.00     0.180 C 
ATOM    638  C3'   G A  30     -25.071  17.401  19.519  1.00  0.00     0.198 C 
ATOM    639  O4'   G A  30     -23.315  15.790  19.480  1.00  0.00    -0.353 OA
ATOM    640  O3'   G A  30     -25.497  17.739  20.837  1.00  0.00    -0.279 OA
ATOM    641  C2'   G A  30     -23.746  18.065  19.158  1.00  0.00     0.199 C 
ATOM    642  P     G A  31     -27.012  17.440  21.293  1.00  0.00     0.408 P 
ATOM    643  OP1   G A  31     -27.819  17.217  20.066  1.00  0.00    -0.624 OA
ATOM    644  OP2   G A  31     -27.417  18.499  22.253  1.00  0.00    -0.624 OA
ATOM    645  O5'   G A  31     -26.917  16.054  22.076  1.00  0.00    -0.287 OA
ATOM    646  C5'   G A  31     -26.624  16.008  23.473  1.00  0.00     0.216 C 
ATOM    647  C4'   G A  31     -27.553  15.040  24.167  1.00  0.00     0.180 C 
ATOM    648  C3'   G A  31     -27.557  15.112  25.689  1.00  0.00     0.198 C 
ATOM    649  O4'   G A  31     -27.127  13.681  23.870  1.00  0.00    -0.353 OA
ATOM    650  O3'   G A  31     -28.454  16.109  26.168  1.00  0.00    -0.279 OA
ATOM    651  C2'   G A  31     -27.990  13.705  26.082  1.00  0.00     0.199 C 
ATOM    652  P     G A  32     -28.277  16.695  27.657  1.00  0.00     0.408 P 
ATOM    653  OP1   G A  32     -29.378  17.665  27.883  1.00  0.00    -0.624 OA
ATOM    654  O5'   G A  32     -28.525  15.435  28.601  1.00  0.00    -0.287 OA
ATOM    655  OP2   G A  32     -26.868  17.132  27.822  1.00  0.00    -0.624 OA
ATOM    656  C5'   G A  32     -29.805  14.808  28.672  1.00  0.00     0.216 C 
ATOM    657  C4'   G A  32     -29.927  14.010  29.950  1.00  0.00     0.180 C 
ATOM    658  C3'   G A  32     -29.224  14.602  31.163  1.00  0.00     0.198 C 
ATOM    659  O4'   G A  32     -29.288  12.720  29.765  1.00  0.00    -0.353 OA
ATOM    660  C2'   G A  32     -28.984  13.376  32.036  1.00  0.00     0.199 C 
ATOM    661  O3'   G A  32     -30.034  15.585  31.803  1.00  0.00    -0.279 OA
ATOM    662  O2'   G A  32     -30.156  13.006  32.740  1.00  0.00    -0.388 OA
ATOM    663  C1'   G A  32     -28.693  12.305  30.983  1.00  0.00     0.262 C 
ATOM    664 'HO2   G A  32     -30.197  13.555  33.524  1.00  0.00     0.210 HD
ATOM    665  N9    G A  32     -27.269  12.086  30.746  1.00  0.00    -0.293 N 
ATOM    666  C4    G A  32     -26.436  11.266  31.470  1.00  0.00     0.187 A 
ATOM    667  C8    G A  32     -26.496  12.650  29.762  1.00  0.00     0.214 A 
ATOM    668  N3    G A  32     -26.791  10.518  32.535  1.00  0.00    -0.044 NA
ATOM    669  C5    G A  32     -25.200  11.383  30.872  1.00  0.00     0.173 A 
ATOM    670  C2    G A  32     -25.769   9.834  33.018  1.00  0.00     0.703 A 
ATOM    671  N2    G A  32     -25.946   9.043  34.080  1.00  0.00    -0.233 N 
ATOM    672  N1    G A  32     -24.501   9.878  32.498  1.00  0.00    -0.153 N 
ATOM    673  H21   G A  32     -26.861   8.977  34.499  1.00  0.00     0.174 HD
ATOM    674  H22   G A  32     -25.174   8.516  34.461  1.00  0.00     0.174 HD
ATOM    675  C6    G A  32     -24.113  10.639  31.403  1.00  0.00     0.292 A 
ATOM    676  H1    G A  32     -23.790   9.316  32.942  1.00  0.00     0.187 HD
ATOM    677  O6    G A  32     -22.941  10.602  31.015  1.00  0.00    -0.265 OA
ATOM    678  N7    G A  32     -25.251  12.259  29.797  1.00  0.00    -0.234 NA
ATOM    679  P     T A  33     -29.398  16.527  32.940  1.00  0.00     0.408 P 
ATOM    680  OP1   T A  33     -30.351  17.643  33.171  1.00  0.00    -0.624 OA
ATOM    681  O5'   T A  33     -29.392  15.608  34.242  1.00  0.00    -0.287 OA
ATOM    682  OP2   T A  33     -27.992  16.830  32.570  1.00  0.00    -0.624 OA
ATOM    683  C5'   T A  33     -28.214  15.450  35.029  1.00  0.00     0.216 C 
ATOM    684  C4'   T A  33     -28.334  14.226  35.904  1.00  0.00     0.180 C 
ATOM    685  C3'   T A  33     -27.431  14.213  37.132  1.00  0.00     0.198 C 
ATOM    686  O4'   T A  33     -27.935  13.060  35.132  1.00  0.00    -0.353 OA
ATOM    687  O3'   T A  33     -28.054  14.849  38.245  1.00  0.00    -0.279 OA
ATOM    688  C2'   T A  33     -27.209  12.724  37.363  1.00  0.00     0.199 C 
ATOM    689  P     T A  34     -27.382  16.156  38.901  1.00  0.00     0.408 P 
ATOM    690  OP1   T A  34     -28.472  16.947  39.525  1.00  0.00    -0.624 OA
ATOM    691  O5'   T A  34     -26.464  15.573  40.066  1.00  0.00    -0.287 OA
ATOM    692  OP2   T A  34     -26.497  16.796  37.893  1.00  0.00    -0.624 OA
ATOM    693  C5'   T A  34     -27.036  14.898  41.185  1.00  0.00     0.216 C 
ATOM    694  C4'   T A  34     -26.097  13.826  41.685  1.00  0.00     0.180 C 
ATOM    695  O4'   T A  34     -25.758  12.944  40.581  1.00  0.00    -0.353 OA
ATOM    696  C3'   T A  34     -24.756  14.324  42.207  1.00  0.00     0.198 C 
ATOM    697  C1'   T A  34     -24.390  12.580  40.661  1.00  0.00     0.264 C 
ATOM    698  C2'   T A  34     -23.848  13.121  41.984  1.00  0.00     0.199 C 
ATOM    699  N1    T A  34     -23.698  13.112  39.477  1.00  0.00    -0.280 N 
ATOM    700  C6    T A  34     -24.263  14.100  38.705  1.00  0.00     0.104 A 
ATOM    701  C2    T A  34     -22.458  12.586  39.165  1.00  0.00     0.331 A 
ATOM    702  C5    T A  34     -23.655  14.600  37.625  1.00  0.00     0.092 A 
ATOM    703  C4    T A  34     -22.370  14.109  37.238  1.00  0.00     0.250 A 
ATOM    704  O4    T A  34     -21.712  14.491  36.272  1.00  0.00    -0.268 OA
ATOM    705  N3    T A  34     -21.863  13.124  38.053  1.00  0.00    -0.275 N 
ATOM    706  H3    T A  34     -20.955  12.758  37.811  1.00  0.00     0.173 HD
ATOM    707  O2    T A  34     -21.923  11.711  39.823  1.00  0.00    -0.246 OA
ATOM    708  C1'   T A  33     -27.118  12.216  35.924  1.00  0.00     0.264 C 
ATOM    709  O2'   T A  33     -28.331  12.128  37.986  1.00  0.00    -0.388 OA
ATOM    710  N1    T A  33     -25.756  12.234  35.370  1.00  0.00    -0.280 N 
ATOM    711  C6    T A  33     -25.434  13.023  34.288  1.00  0.00     0.104 A 
ATOM    712  C2    T A  33     -24.804  11.434  35.975  1.00  0.00     0.331 A 
ATOM    713  C5    T A  33     -24.203  13.058  33.770  1.00  0.00     0.092 A 
ATOM    714  C4    T A  33     -23.164  12.260  34.340  1.00  0.00     0.250 A 
ATOM    715  O4    T A  33     -22.000  12.199  33.948  1.00  0.00    -0.268 OA
ATOM    716  N3    T A  33     -23.554  11.499  35.417  1.00  0.00    -0.275 N 
ATOM    717  H3    T A  33     -22.841  10.930  35.848  1.00  0.00     0.173 HD
ATOM    718  O2    T A  33     -25.047  10.722  36.931  1.00  0.00    -0.246 OA
ATOM    719 'HO2   T A  33     -28.664  12.764  38.619  1.00  0.00     0.210 HD
ATOM    720  C1'   G A  31     -27.274  12.869  25.022  1.00  0.00     0.262 C 
ATOM    721  O2'   G A  31     -29.387  13.539  25.925  1.00  0.00    -0.388 OA
ATOM    722  N9    G A  31     -25.951  12.409  25.434  1.00  0.00    -0.293 N 
ATOM    723  C4    G A  31     -25.676  11.463  26.392  1.00  0.00     0.187 A 
ATOM    724  C8    G A  31     -24.737  12.833  24.950  1.00  0.00     0.214 A 
ATOM    725  N3    G A  31     -26.586  10.786  27.123  1.00  0.00    -0.044 NA
ATOM    726  C5    G A  31     -24.300  11.369  26.430  1.00  0.00     0.173 A 
ATOM    727  C2    G A  31     -26.015   9.943  27.964  1.00  0.00     0.703 A 
ATOM    728  N2    G A  31     -26.774   9.193  28.768  1.00  0.00    -0.233 N 
ATOM    729  N1    G A  31     -24.659   9.773  28.079  1.00  0.00    -0.153 N 
ATOM    730  H21   G A  31     -27.778   9.284  28.719  1.00  0.00     0.174 HD
ATOM    731  H22   G A  31     -26.351   8.547  29.416  1.00  0.00     0.174 HD
ATOM    732  C6    G A  31     -23.703  10.457  27.338  1.00  0.00     0.292 A 
ATOM    733  H1    G A  31     -24.319   9.105  28.753  1.00  0.00     0.187 HD
ATOM    734  O6    G A  31     -22.502  10.225  27.521  1.00  0.00    -0.265 OA
ATOM    735  N7    G A  31     -23.722  12.240  25.515  1.00  0.00    -0.234 NA
ATOM    736 'HO2   G A  31     -29.769  14.417  25.931  1.00  0.00     0.210 HD
ATOM    737  O2'   G A  30     -23.589  19.298  19.836  1.00  0.00    -0.388 OA
ATOM    738  C1'   G A  30     -22.755  17.059  19.729  1.00  0.00     0.262 C 
ATOM    739 'HO2   G A  30     -24.121  19.244  20.630  1.00  0.00     0.210 HD
ATOM    740  N9    G A  30     -21.425  17.106  19.128  1.00  0.00    -0.293 N 
ATOM    741  C8    G A  30     -21.098  16.890  17.812  1.00  0.00     0.214 A 
ATOM    742  C4    G A  30     -20.247  17.382  19.778  1.00  0.00     0.187 A 
ATOM    743  N7    G A  30     -19.821  17.005  17.573  1.00  0.00    -0.234 NA
ATOM    744  C5    G A  30     -19.270  17.317  18.809  1.00  0.00     0.173 A 
ATOM    745  C6    G A  30     -17.921  17.561  19.181  1.00  0.00     0.292 A 
ATOM    746  N1    G A  30     -17.809  17.840  20.538  1.00  0.00    -0.153 N 
ATOM    747  O6    G A  30     -16.911  17.552  18.471  1.00  0.00    -0.265 OA
ATOM    748  C2    G A  30     -18.855  17.879  21.424  1.00  0.00     0.703 A 
ATOM    749  H1    G A  30     -16.884  18.027  20.894  1.00  0.00     0.187 HD
ATOM    750  N2    G A  30     -18.544  18.164  22.691  1.00  0.00    -0.233 N 
ATOM    751  N3    G A  30     -20.112  17.654  21.093  1.00  0.00    -0.044 NA
ATOM    752  H21   G A  30     -19.281  18.203  23.381  1.00  0.00     0.174 HD
ATOM    753  H22   G A  30     -17.587  18.335  22.960  1.00  0.00     0.174 HD
ATOM    754  O2'   A A  29     -23.786  12.682  17.414  1.00  0.00    -0.388 OA
ATOM    755  C1'   A A  29     -21.696  12.456  16.272  1.00  0.00     0.262 C 
ATOM    756 'HO2   A A  29     -24.641  12.770  16.989  1.00  0.00     0.210 HD
ATOM    757  O4'   A A  29     -21.982  11.847  15.024  1.00  0.00    -0.353 OA
BRANCH 698 758
ATOM    758  O2'   T A  34     -24.038  12.142  42.989  1.00  0.00    -0.388 OA
ATOM    759 'HO2   T A  34     -24.706  12.483  43.585  1.00  0.00     0.210 HD
ENDBRANCH 698 758
BRANCH 696 760
ATOM    760  O3'   T A  34     -24.836  14.698  43.581  1.00  0.00    -0.279 OA
BRANCH 760 761
ATOM    761  P     C A  35     -26.077  14.202  44.479  1.00  0.00     0.408 P 
ATOM    762  OP1   C A  35     -27.174  15.185  44.293  1.00  0.00    -0.624 OA
ATOM    763  OP2   C A  35     -25.596  13.891  45.850  1.00  0.00    -0.624 OA
BRANCH 761 764
ATOM    764  O5'   C A  35     -26.523  12.832  43.795  1.00  0.00    -0.287 OA
BRANCH 764 765
ATOM    765  C5'   C A  35     -27.486  11.980  44.410  1.00  0.00     0.216 C 
BRANCH 765 766
ATOM    766  C4'   C A  35     -28.698  11.834  43.520  1.00  0.00     0.180 C 
ATOM    767  O4'   C A  35     -28.270  11.920  42.133  1.00  0.00    -0.353 OA
ATOM    768  C1'   C A  35     -28.954  10.950  41.357  1.00  0.00     0.264 C 
ATOM    769  N1    C A  35     -27.973   9.963  40.875  1.00  0.00    -0.278 N 
ATOM    770  C2'   C A  35     -30.047  10.351  42.240  1.00  0.00     0.199 C 
ATOM    771  C6    C A  35     -26.800   9.754  41.546  1.00  0.00     0.102 A 
ATOM    772  C2    C A  35     -28.259   9.239  39.714  1.00  0.00     0.352 A 
ATOM    773  C5    C A  35     -25.905   8.859  41.112  1.00  0.00     0.067 A 
ATOM    774  C4    C A  35     -26.222   8.136  39.925  1.00  0.00     0.128 A 
ATOM    775  N4    C A  35     -25.371   7.233  39.441  1.00  0.00    -0.384 N 
ATOM    776  N3    C A  35     -27.364   8.333  39.263  1.00  0.00    -0.177 NA
ATOM    777  H41   C A  35     -24.496   7.053  39.912  1.00  0.00     0.157 HD
ATOM    778  H42   C A  35     -25.609   6.730  38.599  1.00  0.00     0.157 HD
ATOM    779  O2    C A  35     -29.329   9.446  39.125  1.00  0.00    -0.244 OA
ATOM    780  C3'   C A  35     -29.426  10.499  43.623  1.00  0.00     0.198 C 
ATOM    781  O2'   C A  35     -31.216  11.140  42.115  1.00  0.00    -0.388 OA
ATOM    782  O3'   C A  35     -30.406  10.516  44.658  1.00  0.00    -0.279 OA
ATOM    783  P     A A  36     -30.387   9.381  45.797  1.00  0.00     0.408 P 
ATOM    784  OP2   A A  36     -29.141   9.543  46.590  1.00  0.00    -0.624 OA
ATOM    785  O5'   A A  36     -30.283   8.014  44.982  1.00  0.00    -0.287 OA
ATOM    786  OP1   A A  36     -31.703   9.425  46.483  1.00  0.00    -0.624 OA
ATOM    787  C5'   A A  36     -31.278   6.997  45.109  1.00  0.00     0.216 C 
ATOM    788  C4'   A A  36     -32.292   7.111  43.992  1.00  0.00     0.180 C 
ATOM    789  C3'   A A  36     -32.709   5.784  43.361  1.00  0.00     0.198 C 
ATOM    790  O4'   A A  36     -31.710   7.894  42.909  1.00  0.00    -0.353 OA
ATOM    791  O3'   A A  36     -33.891   5.266  43.967  1.00  0.00    -0.279 OA
ATOM    792  C2'   A A  36     -32.927   6.151  41.899  1.00  0.00     0.199 C 
ATOM    793  P     A A  37     -33.827   3.892  44.800  1.00  0.00     0.408 P 
ATOM    794  OP2   A A  37     -32.485   3.779  45.426  1.00  0.00    -0.624 OA
ATOM    795  OP1   A A  37     -35.040   3.846  45.657  1.00  0.00    -0.624 OA
ATOM    796  O5'   A A  37     -33.958   2.757  43.688  1.00  0.00    -0.287 OA
ATOM    797  O2'   A A  36     -34.181   6.780  41.708  1.00  0.00    -0.388 OA
ATOM    798  C1'   A A  36     -31.824   7.183  41.693  1.00  0.00     0.262 C 
ATOM    799 'HO2   A A  36     -34.697   6.604  42.496  1.00  0.00     0.210 HD
ATOM    800  N9    A A  36     -30.519   6.605  41.374  1.00  0.00    -0.294 N 
ATOM    801  C8    A A  36     -29.321   6.830  42.006  1.00  0.00     0.214 A 
ATOM    802  C4    A A  36     -30.248   5.710  40.367  1.00  0.00     0.167 A 
ATOM    803  N7    A A  36     -28.318   6.161  41.491  1.00  0.00    -0.236 NA
ATOM    804  C5    A A  36     -28.895   5.446  40.451  1.00  0.00     0.149 A 
ATOM    805  C6    A A  36     -28.362   4.544  39.515  1.00  0.00     0.155 A 
ATOM    806  N6    A A  36     -27.076   4.192  39.474  1.00  0.00    -0.382 N 
ATOM    807  N1    A A  36     -29.207   4.006  38.610  1.00  0.00    -0.222 NA
ATOM    808  H62   A A  36     -26.760   3.537  38.774  1.00  0.00     0.157 HD
ATOM    809  H61   A A  36     -26.428   4.582  40.142  1.00  0.00     0.157 HD
ATOM    810  C2    A A  36     -30.498   4.358  38.650  1.00  0.00     0.237 A 
ATOM    811  N3    A A  36     -31.117   5.194  39.480  1.00  0.00    -0.222 NA
ATOM    812 'HO2   C A  35     -31.820  10.845  42.797  1.00  0.00     0.210 HD
BRANCH 796 813
ATOM    813  C5'   A A  37     -35.235   2.246  43.308  1.00  0.00     0.216 C 
BRANCH 813 814
ATOM    814  C4'   A A  37     -35.071   0.988  42.483  1.00  0.00     0.180 C 
ATOM    815  O4'   A A  37     -34.385   1.310  41.246  1.00  0.00    -0.353 OA
ATOM    816  C1'   A A  37     -33.593   0.207  40.842  1.00  0.00     0.262 C 
ATOM    817  C2'   A A  37     -33.758  -0.899  41.888  1.00  0.00     0.199 C 
ATOM    818  C3'   A A  37     -34.210  -0.100  43.107  1.00  0.00     0.198 C 
BRANCH 816 819
ATOM    819  N9    A A  37     -32.211   0.661  40.691  1.00  0.00    -0.294 N 
ATOM    820  C8    A A  37     -31.624   1.783  41.222  1.00  0.00     0.214 A 
ATOM    821  N7    A A  37     -30.358   1.915  40.909  1.00  0.00    -0.236 NA
ATOM    822  C5    A A  37     -30.094   0.805  40.116  1.00  0.00     0.149 A 
ATOM    823  C6    A A  37     -28.928   0.360  39.467  1.00  0.00     0.155 A 
ATOM    824  C4    A A  37     -31.227   0.025  39.974  1.00  0.00     0.167 A 
ATOM    825  N6    A A  37     -27.761   1.003  39.516  1.00  0.00    -0.382 N 
ATOM    826  N1    A A  37     -29.004  -0.785  38.758  1.00  0.00    -0.222 NA
ATOM    827  H61   A A  37     -27.683   1.861  40.042  1.00  0.00     0.157 HD
ATOM    828  H62   A A  37     -26.963   0.623  39.030  1.00  0.00     0.157 HD
ATOM    829  C2    A A  37     -30.174  -1.434  38.710  1.00  0.00     0.237 A 
ATOM    830  N3    A A  37     -31.336  -1.118  39.277  1.00  0.00    -0.222 NA
ENDBRANCH 816 819
BRANCH 817 831
ATOM    831  O2'   A A  37     -34.772  -1.785  41.448  1.00  0.00    -0.388 OA
ATOM    832 'HO2   A A  37     -35.302  -2.009  42.214  1.00  0.00     0.210 HD
ENDBRANCH 817 831
BRANCH 818 833
ATOM    833  O3'   A A  37     -34.955  -0.885  44.035  1.00  0.00    -0.279 OA
BRANCH 833 834
ATOM    834  P     A A  38     -34.693  -0.725  45.614  1.00  0.00     0.408 P 
ATOM    835  OP1   A A  38     -35.970  -0.290  46.233  1.00  0.00    -0.624 OA
ATOM    836  OP2   A A  38     -33.470   0.099  45.798  1.00  0.00    -0.624 OA
BRANCH 834 837
ATOM    837  O5'   A A  38     -34.377  -2.206  46.112  1.00  0.00    -0.287 OA
BRANCH 837 838
ATOM    838  C5'   A A  38     -33.098  -2.545  46.651  1.00  0.00     0.216 C 
BRANCH 838 839
ATOM    839  C4'   A A  38     -32.836  -4.024  46.481  1.00  0.00     0.180 C 
ATOM    840  C3'   A A  38     -31.395  -4.459  46.745  1.00  0.00     0.198 C 
ATOM    841  C2'   A A  38     -31.225  -5.667  45.828  1.00  0.00     0.199 C 
ATOM    842  O2'   A A  38     -31.777  -6.848  46.378  1.00  0.00    -0.388 OA
ATOM    843  C1'   A A  38     -32.076  -5.254  44.628  1.00  0.00     0.262 C 
ATOM    844 'HO2   A A  38     -32.721  -6.711  46.478  1.00  0.00     0.210 HD
ATOM    845  O4'   A A  38     -33.087  -4.381  45.095  1.00  0.00    -0.353 OA
BRANCH 840 846
ATOM    846  O3'   A A  38     -31.115  -4.777  48.117  1.00  0.00    -0.279 OA
ATOM    847  P     T A  39     -29.627  -5.190  48.588  1.00  0.00     0.408 P 
ATOM    848  OP2   T A  39     -29.603  -6.668  48.741  1.00  0.00    -0.624 OA
ATOM    849  OP1   T A  39     -28.613  -4.529  47.729  1.00  0.00    -0.624 OA
ATOM    850  O5'   T A  39     -29.497  -4.547  50.040  1.00  0.00    -0.287 OA
ATOM    851  C5'   T A  39     -30.274  -3.408  50.412  1.00  0.00     0.216 C 
ATOM    852  C4'   T A  39     -29.458  -2.482  51.283  1.00  0.00     0.180 C 
ATOM    853  O4'   T A  39     -29.377  -3.053  52.622  1.00  0.00    -0.353 OA
ATOM    854  C3'   T A  39     -28.012  -2.268  50.839  1.00  0.00     0.198 C 
ATOM    855  C1'   T A  39     -28.024  -3.255  52.971  1.00  0.00     0.264 C 
ATOM    856  C2'   T A  39     -27.249  -3.304  51.658  1.00  0.00     0.199 C 
ATOM    857  N1    T A  39     -27.920  -4.474  53.788  1.00  0.00    -0.280 N 
ATOM    858  O2'   T A  39     -25.915  -2.895  51.905  1.00  0.00    -0.388 OA
ATOM    859 'HO2   T A  39     -25.599  -2.474  51.106  1.00  0.00     0.210 HD
ATOM    860  C2    T A  39     -28.629  -5.597  53.390  1.00  0.00     0.331 A 
ATOM    861  C6    T A  39     -27.138  -4.496  54.920  1.00  0.00     0.104 A 
ATOM    862  N3    T A  39     -28.486  -6.691  54.205  1.00  0.00    -0.275 N 
ATOM    863  O2    T A  39     -29.329  -5.627  52.396  1.00  0.00    -0.246 OA
ATOM    864  H3    T A  39     -28.993  -7.519  53.934  1.00  0.00     0.173 HD
ATOM    865  C4    T A  39     -27.726  -6.780  55.347  1.00  0.00     0.250 A 
ATOM    866  O4    T A  39     -27.706  -7.836  55.978  1.00  0.00    -0.268 OA
ATOM    867  C5    T A  39     -27.023  -5.583  55.688  1.00  0.00     0.092 A 
ATOM    868  O3'   T A  39     -27.589  -0.934  51.113  1.00  0.00    -0.279 OA
ATOM    869  P     C A  40     -26.510  -0.219  50.157  1.00  0.00     0.408 P 
ATOM    870  OP2   C A  40     -27.102   1.046  49.650  1.00  0.00    -0.624 OA
ATOM    871  O5'   C A  40     -26.341  -1.214  48.923  1.00  0.00    -0.287 OA
ATOM    872  OP1   C A  40     -25.222  -0.183  50.894  1.00  0.00    -0.624 OA
ATOM    873  C5'   C A  40     -25.613  -0.820  47.760  1.00  0.00     0.216 C 
ATOM    874  C4'   C A  40     -25.624  -1.928  46.732  1.00  0.00     0.180 C 
ATOM    875  O4'   C A  40     -27.007  -2.299  46.468  1.00  0.00    -0.353 OA
ATOM    876  C3'   C A  40     -25.028  -1.545  45.379  1.00  0.00     0.198 C 
ATOM    877  C1'   C A  40     -27.277  -2.185  45.087  1.00  0.00     0.264 C 
ATOM    878  N1    C A  40     -28.014  -0.928  44.863  1.00  0.00    -0.278 N 
ATOM    879  C2'   C A  40     -25.926  -2.268  44.381  1.00  0.00     0.199 C 
ATOM    880  C6    C A  40     -28.521  -0.220  45.917  1.00  0.00     0.102 A 
ATOM    881  C2    C A  40     -28.191  -0.466  43.554  1.00  0.00     0.352 A 
ATOM    882  C5    C A  40     -29.193   0.922  45.724  1.00  0.00     0.067 A 
ATOM    883  C4    C A  40     -29.358   1.368  44.382  1.00  0.00     0.128 A 
ATOM    884  N3    C A  40     -28.867   0.687  43.346  1.00  0.00    -0.177 NA
ATOM    885  N4    C A  40     -30.017   2.498  44.126  1.00  0.00    -0.384 N 
ATOM    886  H41   C A  40     -30.404   3.045  44.882  1.00  0.00     0.157 HD
ATOM    887  H42   C A  40     -30.128   2.803  43.169  1.00  0.00     0.157 HD
ATOM    888  O2    C A  40     -27.724  -1.124  42.614  1.00  0.00    -0.244 OA
ATOM    889  O2'   C A  40     -25.563  -3.631  44.253  1.00  0.00    -0.388 OA
ATOM    890 'HO2   C A  40     -24.692  -3.722  44.638  1.00  0.00     0.210 HD
ATOM    891  O3'   C A  40     -23.667  -1.960  45.275  1.00  0.00    -0.279 OA
ATOM    892  P     C A  41     -22.494  -0.860  45.284  1.00  0.00     0.408 P 
ATOM    893  O5'   C A  41     -22.813   0.056  44.019  1.00  0.00    -0.287 OA
ATOM    894  OP2   C A  41     -22.645  -0.028  46.503  1.00  0.00    -0.624 OA
ATOM    895  OP1   C A  41     -21.213  -1.570  45.032  1.00  0.00    -0.624 OA
ATOM    896  C5'   C A  41     -22.760  -0.474  42.695  1.00  0.00     0.216 C 
ATOM    897  C4'   C A  41     -22.942   0.635  41.685  1.00  0.00     0.180 C 
ATOM    898  O4'   C A  41     -24.332   1.065  41.705  1.00  0.00    -0.353 OA
ATOM    899  C3'   C A  41     -22.141   1.903  41.956  1.00  0.00     0.198 C 
ATOM    900  C1'   C A  41     -24.397   2.478  41.620  1.00  0.00     0.264 C 
ATOM    901  N1    C A  41     -24.922   3.000  42.893  1.00  0.00    -0.278 N 
ATOM    902  C2'   C A  41     -22.992   2.975  41.288  1.00  0.00     0.199 C 
ATOM    903  C2    C A  41     -25.333   4.333  42.954  1.00  0.00     0.352 A 
ATOM    904  C6    C A  41     -25.005   2.201  43.999  1.00  0.00     0.102 A 
ATOM    905  N3    C A  41     -25.811   4.826  44.118  1.00  0.00    -0.177 NA
ATOM    906  O2    C A  41     -25.249   5.034  41.937  1.00  0.00    -0.244 OA
ATOM    907  C4    C A  41     -25.887   4.040  45.193  1.00  0.00     0.128 A 
ATOM    908  N4    C A  41     -26.364   4.570  46.318  1.00  0.00    -0.384 N 
ATOM    909  C5    C A  41     -25.476   2.675  45.161  1.00  0.00     0.067 A 
ATOM    910  H41   C A  41     -26.439   4.010  47.155  1.00  0.00     0.157 HD
ATOM    911  H42   C A  41     -26.655   5.539  46.331  1.00  0.00     0.157 HD
ATOM    912  O2'   C A  41     -22.824   2.964  39.883  1.00  0.00    -0.388 OA
ATOM    913 'HO2   C A  41     -22.012   2.489  39.705  1.00  0.00     0.210 HD
ATOM    914  O3'   C A  41     -20.830   1.826  41.404  1.00  0.00    -0.279 OA
ATOM    915  P     C A  42     -19.653   2.738  42.012  1.00  0.00     0.408 P 
ATOM    916  OP2   C A  42     -19.674   2.608  43.491  1.00  0.00    -0.624 OA
ATOM    917  O5'   C A  42     -20.084   4.225  41.637  1.00  0.00    -0.287 OA
ATOM    918  OP1   C A  42     -18.410   2.411  41.265  1.00  0.00    -0.624 OA
ATOM    919  C5'   C A  42     -20.159   4.647  40.276  1.00  0.00     0.216 C 
ATOM    920  C4'   C A  42     -20.430   6.133  40.204  1.00  0.00     0.180 C 
ATOM    921  O4'   C A  42     -21.800   6.384  40.622  1.00  0.00    -0.353 OA
ATOM    922  C3'   C A  42     -19.588   6.997  41.131  1.00  0.00     0.198 C 
ATOM    923  C1'   C A  42     -21.861   7.594  41.357  1.00  0.00     0.264 C 
ATOM    924  C2'   C A  42     -20.468   8.225  41.326  1.00  0.00     0.199 C 
BRANCH 923 925
ATOM    925  N1    C A  42     -22.344   7.290  42.714  1.00  0.00    -0.278 N 
ATOM    926  C6    C A  42     -22.141   6.057  43.271  1.00  0.00     0.102 A 
ATOM    927  C5    C A  42     -22.586   5.774  44.502  1.00  0.00     0.067 A 
ATOM    928  C4    C A  42     -23.272   6.807  45.204  1.00  0.00     0.128 A 
ATOM    929  N3    C A  42     -23.470   8.013  44.672  1.00  0.00    -0.177 NA
ATOM    930  N4    C A  42     -23.740   6.587  46.432  1.00  0.00    -0.384 N 
ATOM    931  C2    C A  42     -23.018   8.283  43.428  1.00  0.00     0.352 A 
ATOM    932  O2    C A  42     -23.187   9.393  42.902  1.00  0.00    -0.244 OA
ATOM    933  H42   C A  42     -24.227   7.327  46.917  1.00  0.00     0.157 HD
ATOM    934  H41   C A  42     -23.612   5.687  46.873  1.00  0.00     0.157 HD
ENDBRANCH 923 925
BRANCH 924 935
ATOM    935  O2'   C A  42     -20.388   9.093  40.211  1.00  0.00    -0.388 OA
ATOM    936 'HO2   C A  42     -19.749   8.710  39.611  1.00  0.00     0.210 HD
ENDBRANCH 924 935
BRANCH 922 937
ATOM    937  O3'   C A  42     -18.329   7.318  40.545  1.00  0.00    -0.279 OA
BRANCH 937 938
ATOM    938  P     G A  43     -16.968   6.931  41.311  1.00  0.00     0.408 P 
ATOM    939  OP2   G A  43     -17.250   5.801  42.232  1.00  0.00    -0.624 OA
ATOM    940  OP1   G A  43     -15.908   6.790  40.281  1.00  0.00    -0.624 OA
BRANCH 938 941
ATOM    941  O5'   G A  43     -16.637   8.219  42.188  1.00  0.00    -0.287 OA
BRANCH 941 942
ATOM    942  C5'   G A  43     -15.518   9.049  41.882  1.00  0.00     0.216 C 
BRANCH 942 943
ATOM    943  C4'   G A  43     -15.090   9.822  43.109  1.00  0.00     0.180 C 
ATOM    944  O4'   G A  43     -15.909  11.017  43.216  1.00  0.00    -0.353 OA
ATOM    945  C1'   G A  43     -16.197  11.280  44.577  1.00  0.00     0.262 C 
ATOM    946  C2'   G A  43     -15.453  10.250  45.425  1.00  0.00     0.199 C 
ATOM    947  C3'   G A  43     -15.284   9.101  44.436  1.00  0.00     0.198 C 
ATOM    948  O2'   G A  43     -14.200  10.791  45.800  1.00  0.00    -0.388 OA
ATOM    949  O3'   G A  43     -14.161   8.282  44.757  1.00  0.00    -0.279 OA
ATOM    950  P     G A  44     -14.247   6.687  44.561  1.00  0.00     0.408 P 
ATOM    951  OP2   G A  44     -15.572   6.219  45.043  1.00  0.00    -0.624 OA
ATOM    952  O5'   G A  44     -13.130   6.118  45.546  1.00  0.00    -0.287 OA
ATOM    953  OP1   G A  44     -13.824   6.387  43.170  1.00  0.00    -0.624 OA
ATOM    954  C5'   G A  44     -12.170   6.986  46.150  1.00  0.00     0.216 C 
ATOM    955  C4'   G A  44     -11.487   6.289  47.304  1.00  0.00     0.180 C 
ATOM    956  C3'   G A  44     -10.602   5.106  46.913  1.00  0.00     0.198 C 
ATOM    957  O4'   G A  44     -12.508   5.753  48.193  1.00  0.00    -0.353 OA
ATOM    958  C2'   G A  44     -11.475   3.891  47.212  1.00  0.00     0.199 C 
ATOM    959  C1'   G A  44     -12.266   4.384  48.419  1.00  0.00     0.262 C 
ATOM    960  N9    G A  44     -13.548   3.715  48.620  1.00  0.00    -0.293 N 
ATOM    961  C4    G A  44     -14.216   2.927  47.711  1.00  0.00     0.187 A 
ATOM    962  C8    G A  44     -14.326   3.742  49.751  1.00  0.00     0.214 A 
ATOM    963  N3    G A  44     -13.802   2.632  46.461  1.00  0.00    -0.044 NA
ATOM    964  C5    G A  44     -15.365   2.520  48.356  1.00  0.00     0.173 A 
ATOM    965  C2    G A  44     -14.658   1.849  45.831  1.00  0.00     0.703 A 
ATOM    966  N1    G A  44     -15.827   1.388  46.380  1.00  0.00    -0.153 N 
ATOM    967  N2    G A  44     -14.400   1.459  44.580  1.00  0.00    -0.233 N 
ATOM    968  C6    G A  44     -16.274   1.678  47.663  1.00  0.00     0.292 A 
ATOM    969  H1    G A  44     -16.410   0.793  45.812  1.00  0.00     0.187 HD
ATOM    970  O6    G A  44     -17.349   1.210  48.058  1.00  0.00    -0.265 OA
ATOM    971  H22   G A  44     -15.043   0.861  44.085  1.00  0.00     0.174 HD
ATOM    972  H21   G A  44     -13.549   1.774  44.134  1.00  0.00     0.174 HD
ATOM    973  N7    G A  44     -15.422   3.043  49.641  1.00  0.00    -0.234 NA
ATOM    974 'HO2   G A  43     -13.548  10.103  45.659  1.00  0.00     0.210 HD
BRANCH 945 975
ATOM    975  N9    G A  43     -17.646  11.246  44.754  1.00  0.00    -0.293 N 
ATOM    976  C4    G A  43     -18.567  12.026  44.098  1.00  0.00     0.187 A 
ATOM    977  N3    G A  43     -18.293  12.964  43.169  1.00  0.00    -0.044 NA
ATOM    978  C5    G A  43     -19.794  11.639  44.593  1.00  0.00     0.173 A 
ATOM    979  C2    G A  43     -19.389  13.548  42.719  1.00  0.00     0.703 A 
ATOM    980  N2    G A  43     -19.298  14.505  41.793  1.00  0.00    -0.233 N 
ATOM    981  N1    G A  43     -20.654  13.236  43.144  1.00  0.00    -0.153 N 
ATOM    982  H22   G A  43     -20.126  14.953  41.430  1.00  0.00     0.174 HD
ATOM    983  H21   G A  43     -18.383  14.767  41.452  1.00  0.00     0.174 HD
ATOM    984  C6    G A  43     -20.962  12.274  44.099  1.00  0.00     0.292 A 
ATOM    985  H1    G A  43     -21.427  13.742  42.737  1.00  0.00     0.187 HD
ATOM    986  O6    G A  43     -22.142  12.071  44.407  1.00  0.00    -0.265 OA
ATOM    987  N7    G A  43     -19.647  10.635  45.543  1.00  0.00    -0.234 NA
ATOM    988  C8    G A  43     -18.359  10.438  45.605  1.00  0.00     0.214 A 
ENDBRANCH 945 975
BRANCH 956 989
ATOM    989  O3'   G A  44      -9.391   5.092  47.665  1.00  0.00    -0.279 OA
BRANCH 989 990
ATOM    990  P     A A  45      -8.045   5.700  47.026  1.00  0.00     0.408 P 
ATOM    991  O5'   A A  45      -6.896   4.729  47.550  1.00  0.00    -0.287 OA
ATOM    992  C5'   A A  45      -5.523   4.982  47.248  1.00  0.00     0.216 C 
ATOM    993  C4'   A A  45      -4.781   3.678  47.060  1.00  0.00     0.180 C 
ATOM    994  O4'   A A  45      -3.943   3.450  48.229  1.00  0.00    -0.353 OA
ATOM    995  C3'   A A  45      -5.660   2.435  46.946  1.00  0.00     0.198 C 
ATOM    996  C1'   A A  45      -4.150   2.138  48.715  1.00  0.00     0.262 C 
ATOM    997  C2'   A A  45      -4.791   1.355  47.575  1.00  0.00     0.199 C 
ATOM    998  N9    A A  45      -4.978   2.218  49.918  1.00  0.00    -0.294 N 
ATOM    999  O2'   A A  45      -3.774   0.928  46.686  1.00  0.00    -0.388 OA
ATOM   1000 'HO2   A A  45      -4.043   1.197  45.807  1.00  0.00     0.210 HD
ATOM   1001  C4    A A  45      -5.174   1.227  50.850  1.00  0.00     0.167 A 
ATOM   1002  C8    A A  45      -5.719   3.290  50.350  1.00  0.00     0.214 A 
ATOM   1003  C5    A A  45      -6.029   1.763  51.795  1.00  0.00     0.149 A 
ATOM   1004  N3    A A  45      -4.647  -0.010  50.849  1.00  0.00    -0.222 NA
ATOM   1005  N7    A A  45      -6.367   3.068  51.468  1.00  0.00    -0.236 NA
ATOM   1006  C6    A A  45      -6.390   0.934  52.871  1.00  0.00     0.155 A 
ATOM   1007  N6    A A  45      -7.211   1.313  53.852  1.00  0.00    -0.382 N 
ATOM   1008  N1    A A  45      -5.876  -0.313  52.903  1.00  0.00    -0.222 NA
ATOM   1009  H62   A A  45      -7.439   0.678  54.605  1.00  0.00     0.157 HD
ATOM   1010  H61   A A  45      -7.606   2.242  53.841  1.00  0.00     0.157 HD
ATOM   1011  C2    A A  45      -5.058  -0.696  51.914  1.00  0.00     0.237 A 
ATOM   1012  O3'   A A  45      -5.991   2.154  45.589  1.00  0.00    -0.279 OA
ATOM   1013  OP1   A A  45      -7.823   7.040  47.628  1.00  0.00    -0.624 OA
ATOM   1014  OP2   A A  45      -8.133   5.566  45.550  1.00  0.00    -0.624 OA
BRANCH 1012 1015
ATOM   1015  P     C A  46      -7.428   1.528  45.231  1.00  0.00     0.408 P 
ATOM   1016  OP1   C A  46      -8.409   2.083  46.198  1.00  0.00    -0.624 OA
ATOM   1017  OP2   C A  46      -7.285   0.057  45.094  1.00  0.00    -0.624 OA
BRANCH 1015 1018
ATOM   1018  O5'   C A  46      -7.759   2.130  43.792  1.00  0.00    -0.287 OA
BRANCH 1018 1019
ATOM   1019  C5'   C A  46      -6.814   2.949  43.107  1.00  0.00     0.216 C 
BRANCH 1019 1020
ATOM   1020  C4'   C A  46      -6.878   2.687  41.620  1.00  0.00     0.180 C 
ATOM   1021  O4'   C A  46      -8.244   2.348  41.250  1.00  0.00    -0.353 OA
ATOM   1022  C1'   C A  46      -8.537   2.883  39.969  1.00  0.00     0.264 C 
ATOM   1023  C2'   C A  46      -7.247   3.502  39.431  1.00  0.00     0.199 C 
ATOM   1024  C3'   C A  46      -6.541   3.873  40.727  1.00  0.00     0.198 C 
BRANCH 1022 1025
ATOM   1025  N1    C A  46      -9.643   3.846  40.106  1.00  0.00    -0.278 N 
ATOM   1026  C6    C A  46      -9.967   4.375  41.326  1.00  0.00     0.102 A 
ATOM   1027  C5    C A  46     -10.976   5.247  41.455  1.00  0.00     0.067 A 
ATOM   1028  C4    C A  46     -11.692   5.601  40.275  1.00  0.00     0.128 A 
ATOM   1029  N3    C A  46     -11.380   5.094  39.080  1.00  0.00    -0.177 NA
ATOM   1030  N4    C A  46     -12.706   6.462  40.338  1.00  0.00    -0.384 N 
ATOM   1031  C2    C A  46     -10.362   4.214  38.965  1.00  0.00     0.352 A 
ATOM   1032  O2    C A  46     -10.048   3.722  37.872  1.00  0.00    -0.244 OA
ATOM   1033  H42   C A  46     -13.206   6.710  39.496  1.00  0.00     0.157 HD
ATOM   1034  H41   C A  46     -12.974   6.867  41.224  1.00  0.00     0.157 HD
ENDBRANCH 1022 1025
BRANCH 1023 1035
ATOM   1035  O2'   C A  46      -6.529   2.511  38.723  1.00  0.00    -0.388 OA
ATOM   1036 'HO2   C A  46      -7.055   2.286  37.955  1.00  0.00     0.210 HD
ENDBRANCH 1023 1035
BRANCH 1024 1037
ATOM   1037  O3'   C A  46      -5.135   4.030  40.562  1.00  0.00    -0.279 OA
BRANCH 1037 1038
ATOM   1038  P     G A  47      -4.415   5.368  41.087  1.00  0.00     0.408 P 
ATOM   1039  OP2   G A  47      -5.350   6.085  41.992  1.00  0.00    -0.624 OA
ATOM   1040  OP1   G A  47      -3.070   4.980  41.582  1.00  0.00    -0.624 OA
BRANCH 1038 1041
ATOM   1041  O5'   G A  47      -4.223   6.246  39.771  1.00  0.00    -0.287 OA
BRANCH 1041 1042
ATOM   1042  C5'   G A  47      -3.521   7.486  39.815  1.00  0.00     0.216 C 
BRANCH 1042 1043
ATOM   1043  C4'   G A  47      -4.204   8.508  38.935  1.00  0.00     0.180 C 
ATOM   1044  O4'   G A  47      -3.815   8.299  37.551  1.00  0.00    -0.353 OA
ATOM   1045  C1'   G A  47      -4.877   8.697  36.699  1.00  0.00     0.262 C 
ATOM   1046  C2'   G A  47      -6.024   9.180  37.589  1.00  0.00     0.199 C 
ATOM   1047  N9    G A  47      -5.243   7.568  35.849  1.00  0.00    -0.293 N 
ATOM   1048  O2'   G A  47      -5.904  10.580  37.762  1.00  0.00    -0.388 OA
ATOM   1049  C3'   G A  47      -5.721   8.436  38.883  1.00  0.00     0.198 C 
ATOM   1050 'HO2   G A  47      -5.988  10.748  38.701  1.00  0.00     0.210 HD
ATOM   1051  O3'   G A  47      -6.327   9.044  40.021  1.00  0.00    -0.279 OA
ATOM   1052  P     A A  48      -7.829   8.644  40.432  1.00  0.00     0.408 P 
ATOM   1053  OP1   A A  48      -8.185   9.446  41.632  1.00  0.00    -0.624 OA
ATOM   1054  O5'   A A  48      -8.717   9.161  39.213  1.00  0.00    -0.287 OA
ATOM   1055  OP2   A A  48      -7.927   7.163  40.487  1.00  0.00    -0.624 OA
ATOM   1056  C5'   A A  48      -8.791  10.549  38.900  1.00  0.00     0.216 C 
ATOM   1057  C4'   A A  48      -9.558  10.758  37.614  1.00  0.00     0.180 C 
ATOM   1058  O4'   A A  48      -8.901  10.059  36.527  1.00  0.00    -0.353 OA
ATOM   1059  C3'   A A  48     -10.967  10.192  37.577  1.00  0.00     0.198 C 
ATOM   1060  C1'   A A  48      -9.864   9.720  35.540  1.00  0.00     0.262 C 
ATOM   1061  N9    A A  48      -9.753   8.291  35.248  1.00  0.00    -0.294 N 
ATOM   1062  C2'   A A  48     -11.239  10.124  36.078  1.00  0.00     0.199 C 
ATOM   1063  C8    A A  48      -9.009   7.343  35.904  1.00  0.00     0.214 A 
ATOM   1064  C4    A A  48     -10.398   7.624  34.233  1.00  0.00     0.167 A 
ATOM   1065  N7    A A  48      -9.121   6.138  35.399  1.00  0.00    -0.236 NA
ATOM   1066  C5    A A  48     -10.002   6.304  34.338  1.00  0.00     0.149 A 
ATOM   1067  C6    A A  48     -10.532   5.402  33.398  1.00  0.00     0.155 A 
ATOM   1068  N6    A A  48     -10.240   4.101  33.371  1.00  0.00    -0.382 N 
ATOM   1069  N1    A A  48     -11.385   5.889  32.471  1.00  0.00    -0.222 NA
ATOM   1070  H61   A A  48      -9.604   3.716  34.054  1.00  0.00     0.157 HD
ATOM   1071  H62   A A  48     -10.655   3.500  32.672  1.00  0.00     0.157 HD
ATOM   1072  C2    A A  48     -11.676   7.197  32.494  1.00  0.00     0.237 A 
ATOM   1073  N3    A A  48     -11.241   8.143  33.325  1.00  0.00    -0.222 NA
ATOM   1074  O2'   A A  48     -11.567  11.400  35.560  1.00  0.00    -0.388 OA
ATOM   1075 'HO2   A A  48     -11.839  11.937  36.304  1.00  0.00     0.210 HD
ATOM   1076  O3'   A A  48     -11.897  11.025  38.265  1.00  0.00    -0.279 OA
ATOM   1077  P     G A  49     -13.290  10.409  38.783  1.00  0.00     0.408 P 
ATOM   1078  OP1   G A  49     -13.904  11.412  39.691  1.00  0.00    -0.624 OA
ATOM   1079  OP2   G A  49     -13.049   9.028  39.273  1.00  0.00    -0.624 OA
ATOM   1080  O5'   G A  49     -14.186  10.320  37.467  1.00  0.00    -0.287 OA
ATOM   1081  C5'   G A  49     -14.523  11.495  36.732  1.00  0.00     0.216 C 
ATOM   1082  C4'   G A  49     -15.417  11.145  35.565  1.00  0.00     0.180 C 
ATOM   1083  O4'   G A  49     -14.652  10.410  34.573  1.00  0.00    -0.353 OA
ATOM   1084  C3'   G A  49     -16.581  10.215  35.871  1.00  0.00     0.198 C 
ATOM   1085  C1'   G A  49     -15.501   9.485  33.911  1.00  0.00     0.262 C 
ATOM   1086  C2'   G A  49     -16.905   9.655  34.494  1.00  0.00     0.199 C 
ATOM   1087  N9    G A  49     -14.958   8.143  34.096  1.00  0.00    -0.293 N 
ATOM   1088  O2'   G A  49     -17.611  10.599  33.712  1.00  0.00    -0.388 OA
ATOM   1089 'HO2   G A  49     -17.976  11.241  34.322  1.00  0.00     0.210 HD
ATOM   1090  C8    G A  49     -14.051   7.734  35.042  1.00  0.00     0.214 A 
ATOM   1091  C4    G A  49     -15.265   7.032  33.349  1.00  0.00     0.187 A 
ATOM   1092  N7    G A  49     -13.758   6.465  34.961  1.00  0.00    -0.234 NA
ATOM   1093  C5    G A  49     -14.520   6.007  33.894  1.00  0.00     0.173 A 
ATOM   1094  C6    G A  49     -14.628   4.710  33.327  1.00  0.00     0.292 A 
ATOM   1095  O6    G A  49     -14.049   3.670  33.664  1.00  0.00    -0.265 OA
ATOM   1096  N1    G A  49     -15.518   4.691  32.261  1.00  0.00    -0.153 N 
ATOM   1097  H1    G A  49     -15.663   3.810  31.794  1.00  0.00     0.187 HD
ATOM   1098  C2    G A  49     -16.214   5.777  31.796  1.00  0.00     0.703 A 
ATOM   1099  N3    G A  49     -16.123   6.988  32.310  1.00  0.00    -0.044 NA
ATOM   1100  N2    G A  49     -17.024   5.556  30.758  1.00  0.00    -0.233 N 
ATOM   1101  H21   G A  49     -17.560   6.322  30.377  1.00  0.00     0.174 HD
ATOM   1102  H22   G A  49     -17.103   4.631  30.360  1.00  0.00     0.174 HD
ATOM   1103  O3'   G A  49     -17.682  10.908  36.453  1.00  0.00    -0.279 OA
ATOM   1104  P     C A  50     -18.739  10.106  37.362  1.00  0.00     0.408 P 
ATOM   1105  OP1   C A  50     -19.815  11.059  37.735  1.00  0.00    -0.624 OA
ATOM   1106  OP2   C A  50     -17.993   9.388  38.428  1.00  0.00    -0.624 OA
ATOM   1107  O5'   C A  50     -19.356   9.020  36.372  1.00  0.00    -0.287 OA
ATOM   1108  C5'   C A  50     -20.168   9.414  35.266  1.00  0.00     0.216 C 
ATOM   1109  C4'   C A  50     -20.452   8.227  34.375  1.00  0.00     0.180 C 
ATOM   1110  O4'   C A  50     -19.203   7.632  33.939  1.00  0.00    -0.353 OA
ATOM   1111  C3'   C A  50     -21.179   7.061  35.025  1.00  0.00     0.198 C 
ATOM   1112  C1'   C A  50     -19.400   6.248  33.700  1.00  0.00     0.264 C 
ATOM   1113  N1    C A  50     -18.404   5.486  34.473  1.00  0.00    -0.278 N 
ATOM   1114  C2'   C A  50     -20.846   5.915  34.079  1.00  0.00     0.199 C 
ATOM   1115  C6    C A  50     -17.658   6.089  35.449  1.00  0.00     0.102 A 
ATOM   1116  C2    C A  50     -18.234   4.128  34.194  1.00  0.00     0.352 A 
ATOM   1117  C5    C A  50     -16.752   5.397  36.151  1.00  0.00     0.067 A 
ATOM   1118  C4    C A  50     -16.601   4.013  35.844  1.00  0.00     0.128 A 
ATOM   1119  N4    C A  50     -15.718   3.270  36.508  1.00  0.00    -0.384 N 
ATOM   1120  N3    C A  50     -17.327   3.417  34.897  1.00  0.00    -0.177 NA
ATOM   1121  H42   C A  50     -15.618   2.290  36.277  1.00  0.00     0.157 HD
ATOM   1122  H41   C A  50     -15.147   3.681  37.233  1.00  0.00     0.157 HD
ATOM   1123  O2    C A  50     -18.922   3.606  33.306  1.00  0.00    -0.244 OA
ATOM   1124  O2'   C A  50     -21.641   5.969  32.910  1.00  0.00    -0.388 OA
ATOM   1125 'HO2   C A  50     -22.344   6.596  33.084  1.00  0.00     0.210 HD
ATOM   1126  O3'   C A  50     -22.580   7.295  35.128  1.00  0.00    -0.279 OA
ATOM   1127  P     C A  51     -23.451   6.467  36.200  1.00  0.00     0.408 P 
ATOM   1128  OP1   C A  51     -24.846   6.970  36.120  1.00  0.00    -0.624 OA
ATOM   1129  OP2   C A  51     -22.736   6.489  37.502  1.00  0.00    -0.624 OA
ATOM   1130  O5'   C A  51     -23.428   4.973  35.647  1.00  0.00    -0.287 OA
ATOM   1131  C5'   C A  51     -23.975   4.654  34.369  1.00  0.00     0.216 C 
ATOM   1132  C4'   C A  51     -23.879   3.168  34.111  1.00  0.00     0.180 C 
ATOM   1133  O4'   C A  51     -22.489   2.807  33.900  1.00  0.00    -0.353 OA
ATOM   1134  C3'   C A  51     -24.315   2.269  35.258  1.00  0.00     0.198 C 
ATOM   1135  C1'   C A  51     -22.263   1.491  34.379  1.00  0.00     0.264 C 
ATOM   1136  N1    C A  51     -21.176   1.534  35.371  1.00  0.00    -0.278 N 
ATOM   1137  C2'   C A  51     -23.586   0.967  34.942  1.00  0.00     0.199 C 
ATOM   1138  C6    C A  51     -20.877   2.692  36.034  1.00  0.00     0.102 A 
ATOM   1139  C2    C A  51     -20.451   0.369  35.626  1.00  0.00     0.352 A 
ATOM   1140  C5    C A  51     -19.884   2.737  36.932  1.00  0.00     0.067 A 
ATOM   1141  C4    C A  51     -19.158   1.533  37.167  1.00  0.00     0.128 A 
ATOM   1142  N4    C A  51     -18.155   1.514  38.044  1.00  0.00    -0.384 N 
ATOM   1143  N3    C A  51     -19.447   0.399  36.529  1.00  0.00    -0.177 NA
ATOM   1144  H41   C A  51     -17.901   2.350  38.550  1.00  0.00     0.157 HD
ATOM   1145  H42   C A  51     -17.648   0.653  38.196  1.00  0.00     0.157 HD
ATOM   1146  O2    C A  51     -20.745  -0.668  35.015  1.00  0.00    -0.244 OA
ATOM   1147  O2'   C A  51     -24.253   0.242  33.927  1.00  0.00    -0.388 OA
ATOM   1148 'HO2   C A  51     -24.988   0.783  33.637  1.00  0.00     0.210 HD
ATOM   1149  O3'   C A  51     -25.730   2.104  35.293  1.00  0.00    -0.279 OA
ATOM   1150  P     C A  52     -26.448   1.640  36.655  1.00  0.00     0.408 P 
ATOM   1151  OP1   C A  52     -27.913   1.773  36.454  1.00  0.00    -0.624 OA
ATOM   1152  OP2   C A  52     -25.797   2.336  37.794  1.00  0.00    -0.624 OA
ATOM   1153  O5'   C A  52     -26.104   0.087  36.765  1.00  0.00    -0.287 OA
ATOM   1154  C5'   C A  52     -26.471  -0.823  35.728  1.00  0.00     0.216 C 
ATOM   1155  C4'   C A  52     -25.970  -2.212  36.052  1.00  0.00     0.180 C 
ATOM   1156  O4'   C A  52     -24.535  -2.257  35.833  1.00  0.00    -0.353 OA
ATOM   1157  C3'   C A  52     -26.146  -2.652  37.497  1.00  0.00     0.182 C 
ATOM   1158  C1'   C A  52     -23.932  -3.105  36.795  1.00  0.00     0.264 C 
ATOM   1159  N1    C A  52     -22.944  -2.317  37.549  1.00  0.00    -0.278 N 
ATOM   1160  C2'   C A  52     -25.045  -3.694  37.664  1.00  0.00     0.198 C 
ATOM   1161  C6    C A  52     -23.203  -1.024  37.907  1.00  0.00     0.102 A 
ATOM   1162  C2    C A  52     -21.729  -2.915  37.895  1.00  0.00     0.352 A 
ATOM   1163  C5    C A  52     -22.305  -0.303  38.590  1.00  0.00     0.067 A 
ATOM   1164  C4    C A  52     -21.074  -0.936  38.926  1.00  0.00     0.128 A 
ATOM   1165  N4    C A  52     -20.139  -0.271  39.604  1.00  0.00    -0.384 N 
ATOM   1166  N3    C A  52     -20.813  -2.198  38.583  1.00  0.00    -0.177 NA
ATOM   1167  H41   C A  52     -20.296   0.686  39.883  1.00  0.00     0.157 HD
ATOM   1168  H42   C A  52     -19.270  -0.734  39.831  1.00  0.00     0.157 HD
ATOM   1169  O2    C A  52     -21.522  -4.090  37.562  1.00  0.00    -0.244 OA
ATOM   1170  O2'   C A  52     -25.434  -4.942  37.118  1.00  0.00    -0.388 OA
ATOM   1171 'HO2   C A  52     -26.387  -4.997  37.197  1.00  0.00     0.210 HD
ATOM   1172  O3'   C A  52     -27.449  -3.191  37.744  1.00  0.00    -0.390 OA
ATOM   1173 'HO3   C A  52     -28.086  -2.569  37.384  1.00  0.00     0.210 HD
ATOM   1174  C4    G A  47      -5.997   7.625  34.703  1.00  0.00     0.187 A 
ATOM   1175  C8    G A  47      -4.916   6.247  36.032  1.00  0.00     0.214 A 
ATOM   1176  N3    G A  47      -6.529   8.738  34.158  1.00  0.00    -0.044 NA
ATOM   1177  C5    G A  47      -6.085   6.322  34.258  1.00  0.00     0.173 A 
ATOM   1178  C2    G A  47      -7.209   8.473  33.058  1.00  0.00     0.703 A 
ATOM   1179  N2    G A  47      -7.803   9.465  32.393  1.00  0.00    -0.233 N 
ATOM   1180  N1    G A  47      -7.358   7.216  32.531  1.00  0.00    -0.153 N 
ATOM   1181  H21   G A  47      -7.726  10.410  32.737  1.00  0.00     0.174 HD
ATOM   1182  H22   G A  47      -8.333   9.270  31.553  1.00  0.00     0.174 HD
ATOM   1183  C6    G A  47      -6.820   6.054  33.072  1.00  0.00     0.292 A 
ATOM   1184  H1    G A  47      -7.898   7.122  31.685  1.00  0.00     0.187 HD
ATOM   1185  O6    G A  47      -7.016   4.968  32.514  1.00  0.00    -0.265 OA
ATOM   1186  N7    G A  47      -5.396   5.464  35.104  1.00  0.00    -0.234 NA
ENDBRANCH 1042 1043
ENDBRANCH 1041 1042
ENDBRANCH 1038 1041
ENDBRANCH 1037 1038
ENDBRANCH 1024 1037
ENDBRANCH 1019 1020
ENDBRANCH 1018 1019
ENDBRANCH 1015 1018
ENDBRANCH 1012 1015
ENDBRANCH 989 990
ENDBRANCH 956 989
BRANCH 958 1187
ATOM   1187  O2'   G A  44     -10.689   2.781  47.607  1.00  0.00    -0.388 OA
ATOM   1188 'HO2   G A  44      -9.775   3.034  47.476  1.00  0.00     0.210 HD
ENDBRANCH 958 1187
ENDBRANCH 942 943
ENDBRANCH 941 942
ENDBRANCH 938 941
ENDBRANCH 937 938
ENDBRANCH 922 937
ENDBRANCH 840 846
BRANCH 843 1189
ATOM   1189  N9    A A  38     -31.320  -4.564  43.583  1.00  0.00    -0.294 N 
ATOM   1190  C4    A A  38     -30.042  -4.862  43.173  1.00  0.00     0.167 A 
ATOM   1191  N3    A A  38     -29.242  -5.833  43.644  1.00  0.00    -0.222 NA
ATOM   1192  C5    A A  38     -29.745  -3.954  42.174  1.00  0.00     0.149 A 
ATOM   1193  C2    A A  38     -28.072  -5.825  43.010  1.00  0.00     0.237 A 
ATOM   1194  N1    A A  38     -27.644  -5.018  42.033  1.00  0.00    -0.222 NA
ATOM   1195  C6    A A  38     -28.473  -4.052  41.583  1.00  0.00     0.155 A 
ATOM   1196  N6    A A  38     -28.043  -3.248  40.610  1.00  0.00    -0.382 N 
ATOM   1197  H62   A A  38     -27.115  -3.375  40.233  1.00  0.00     0.157 HD
ATOM   1198  H61   A A  38     -28.644  -2.518  40.257  1.00  0.00     0.157 HD
ATOM   1199  N7    A A  38     -30.816  -3.097  41.955  1.00  0.00    -0.236 NA
ATOM   1200  C8    A A  38     -31.721  -3.500  42.814  1.00  0.00     0.214 A 
ENDBRANCH 843 1189
ENDBRANCH 838 839
ENDBRANCH 837 838
ENDBRANCH 834 837
ENDBRANCH 833 834
ENDBRANCH 818 833
ENDBRANCH 813 814
ENDBRANCH 796 813
ENDBRANCH 765 766
ENDBRANCH 764 765
ENDBRANCH 761 764
ENDBRANCH 760 761
ENDBRANCH 696 760
BRANCH 755 1201
ATOM   1201  N9    A A  29     -20.407  13.140  16.167  1.00  0.00    -0.294 N 
ATOM   1202  C8    A A  29     -19.478  13.347  17.157  1.00  0.00     0.214 A 
ATOM   1203  N7    A A  29     -18.415  14.000  16.755  1.00  0.00    -0.236 NA
ATOM   1204  C5    A A  29     -18.659  14.236  15.408  1.00  0.00     0.149 A 
ATOM   1205  C4    A A  29     -19.881  13.711  15.033  1.00  0.00     0.167 A 
ATOM   1206  C6    A A  29     -17.910  14.884  14.410  1.00  0.00     0.155 A 
ATOM   1207  N3    A A  29     -20.435  13.753  13.809  1.00  0.00    -0.222 NA
ATOM   1208  C2    A A  29     -19.637  14.386  12.954  1.00  0.00     0.237 A 
ATOM   1209  N1    A A  29     -18.436  14.942  13.167  1.00  0.00    -0.222 NA
ATOM   1210  N6    A A  29     -16.718  15.442  14.623  1.00  0.00    -0.382 N 
ATOM   1211  H61   A A  29     -16.308  15.411  15.545  1.00  0.00     0.157 HD
ATOM   1212  H62   A A  29     -16.221  15.888  13.864  1.00  0.00     0.157 HD
ENDBRANCH 755 1201
ENDBRANCH 627 628
ENDBRANCH 626 627
ENDBRANCH 623 626
ENDBRANCH 622 623
ENDBRANCH 592 622
BRANCH 594 1213
ATOM   1213  O2'   G A  28     -21.035   8.066  12.036  1.00  0.00    -0.388 OA
ATOM   1214 'HO2   G A  28     -20.304   7.605  12.446  1.00  0.00     0.210 HD
ENDBRANCH 594 1213
BRANCH 604 1215
ATOM   1215  N2    G A  28     -21.216   3.151   9.481  1.00  0.00    -0.233 N 
ATOM   1216  H21   G A  28     -20.209   3.206   9.516  1.00  0.00     0.174 HD
ATOM   1217  H22   G A  28     -21.688   3.033   8.596  1.00  0.00     0.174 HD
ENDBRANCH 604 1215
ENDBRANCH 552 553
ENDBRANCH 549 552
ENDBRANCH 548 549
ENDBRANCH 544 548
BRANCH 545 1218
ATOM   1218  O2'   C A  25     -27.132  -3.499  20.301  1.00  0.00    -0.388 OA
ATOM   1219 'HO2   C A  25     -26.844  -2.845  20.938  1.00  0.00     0.210 HD
ENDBRANCH 545 1218
BRANCH 546 1220
ATOM   1220  N1    C A  25     -29.724  -3.354  17.716  1.00  0.00    -0.278 N 
ATOM   1221  C2    C A  25     -29.117  -4.035  16.659  1.00  0.00     0.352 A 
ATOM   1222  N3    C A  25     -29.593  -3.869  15.405  1.00  0.00    -0.177 NA
ATOM   1223  O2    C A  25     -28.154  -4.776  16.896  1.00  0.00    -0.244 OA
ATOM   1224  C4    C A  25     -30.635  -3.066  15.189  1.00  0.00     0.128 A 
ATOM   1225  C5    C A  25     -31.277  -2.363  16.249  1.00  0.00     0.067 A 
ATOM   1226  N4    C A  25     -31.069  -2.935  13.937  1.00  0.00    -0.384 N 
ATOM   1227  C6    C A  25     -30.791  -2.533  17.485  1.00  0.00     0.102 A 
ATOM   1228  H42   C A  25     -30.607  -3.435  13.191  1.00  0.00     0.157 HD
ATOM   1229  H41   C A  25     -31.855  -2.336  13.732  1.00  0.00     0.157 HD
ENDBRANCH 546 1220
ENDBRANCH 513 543
ENDBRANCH 367 368
ENDBRANCH 364 367
ENDBRANCH 363 364
ENDBRANCH 360 363
ENDBRANCH 346 347
ENDBRANCH 345 346
ENDBRANCH 342 345
ENDBRANCH 341 342
ENDBRANCH 317 341
ENDBRANCH 251 252
ENDBRANCH 250 251
ENDBRANCH 247 250
ENDBRANCH 246 247
ENDBRANCH 223 246
ENDBRANCH 206 207
ENDBRANCH 205 206
ENDBRANCH 202 205
ENDBRANCH 201 202
ENDBRANCH 179 201
BRANCH 197 1230
ATOM   1230  N9    G A   9     -31.830   6.873  27.607  1.00  0.00    -0.293 N 
ATOM   1231  C4    G A   9     -31.336   5.700  27.090  1.00  0.00     0.187 A 
ATOM   1232  N3    G A   9     -30.042   5.441  26.810  1.00  0.00    -0.044 NA
ATOM   1233  C5    G A   9     -32.431   4.878  26.932  1.00  0.00     0.173 A 
ATOM   1234  C2    G A   9     -29.877   4.226  26.321  1.00  0.00     0.703 A 
ATOM   1235  N1    G A   9     -30.898   3.332  26.124  1.00  0.00    -0.153 N 
ATOM   1236  C6    G A   9     -32.237   3.573  26.408  1.00  0.00     0.292 A 
ATOM   1237  H1    G A   9     -30.662   2.429  25.745  1.00  0.00     0.187 HD
ATOM   1238  O6    G A   9     -33.078   2.692  26.195  1.00  0.00    -0.265 OA
ATOM   1239  N7    G A   9     -33.593   5.521  27.341  1.00  0.00    -0.234 NA
ATOM   1240  C8    G A   9     -33.186   6.698  27.731  1.00  0.00     0.214 A 
BRANCH 1234 1241
ATOM   1241  N2    G A   9     -28.654   3.806  25.987  1.00  0.00    -0.233 N 
ATOM   1242  H21   G A   9     -28.462   3.552  25.029  1.00  0.00     0.174 HD
ATOM   1243  H22   G A   9     -27.930   3.739  26.688  1.00  0.00     0.174 HD
ENDBRANCH 1234 1241
ENDBRANCH 197 1230
ENDBRANCH 165 166
ENDBRANCH 162 165
ENDBRANCH 137 162
ENDBRANCH 113 117
BRANCH 114 1244
ATOM   1244  O2'   G A   6     -33.619  -0.873  32.898  1.00  0.00    -0.388 OA
ATOM   1245 'HO2   G A   6     -32.735  -1.135  32.637  1.00  0.00     0.210 HD
ENDBRANCH 114 1244
BRANCH 115 1246
ATOM   1246  N9    G A   6     -33.422  -2.267  36.254  1.00  0.00    -0.293 N 
ATOM   1247  C8    G A   6     -34.225  -2.670  37.294  1.00  0.00     0.214 A 
ATOM   1248  N7    G A   6     -33.689  -3.607  38.026  1.00  0.00    -0.234 NA
ATOM   1249  C5    G A   6     -32.457  -3.843  37.430  1.00  0.00     0.173 A 
ATOM   1250  C4    G A   6     -32.278  -3.024  36.336  1.00  0.00     0.187 A 
ATOM   1251  C6    G A   6     -31.426  -4.754  37.778  1.00  0.00     0.292 A 
ATOM   1252  N3    G A   6     -31.221  -2.955  35.499  1.00  0.00    -0.044 NA
ATOM   1253  C2    G A   6     -30.270  -3.810  35.835  1.00  0.00     0.703 A 
ATOM   1254  N2    G A   6     -29.150  -3.875  35.111  1.00  0.00    -0.233 N 
ATOM   1255  N1    G A   6     -30.348  -4.664  36.905  1.00  0.00    -0.153 N 
ATOM   1256  H22   G A   6     -28.420  -4.527  35.362  1.00  0.00     0.174 HD
ATOM   1257  H21   G A   6     -29.038  -3.270  34.311  1.00  0.00     0.174 HD
ATOM   1258  H1    G A   6     -29.564  -5.275  37.073  1.00  0.00     0.187 HD
ATOM   1259  O6    G A   6     -31.393  -5.564  38.711  1.00  0.00    -0.265 OA
ENDBRANCH 115 1246
ENDBRANCH 111 112
ENDBRANCH 110 111
ENDBRANCH 107 110
ENDBRANCH 106 107
ENDBRANCH 102 106
BRANCH 103 1260
ATOM   1260  O2'   C A   5     -37.698   2.056  40.122  1.00  0.00    -0.388 OA
ATOM   1261 'HO2   C A   5     -37.466   2.884  39.697  1.00  0.00     0.210 HD
ENDBRANCH 103 1260
BRANCH 104 1262
ATOM   1262  N1    C A   5     -41.257   2.625  40.351  1.00  0.00    -0.278 N 
ATOM   1263  C2    C A   5     -41.516   2.674  41.722  1.00  0.00     0.352 A 
ATOM   1264  O2    C A   5     -40.603   2.997  42.495  1.00  0.00    -0.244 OA
ATOM   1265  N3    C A   5     -42.752   2.369  42.175  1.00  0.00    -0.177 NA
ATOM   1266  C4    C A   5     -43.711   2.030  41.313  1.00  0.00     0.128 A 
ATOM   1267  N4    C A   5     -44.914   1.740  41.807  1.00  0.00    -0.384 N 
ATOM   1268  C5    C A   5     -43.478   1.973  39.908  1.00  0.00     0.067 A 
ATOM   1269  H42   C A   5     -45.068   1.778  42.806  1.00  0.00     0.157 HD
ATOM   1270  H41   C A   5     -45.670   1.479  41.193  1.00  0.00     0.157 HD
ATOM   1271  C6    C A   5     -42.246   2.274  39.475  1.00  0.00     0.102 A 
ENDBRANCH 104 1262
ENDBRANCH 100 101
ENDBRANCH  99 100
ENDBRANCH  96  99
ENDBRANCH  95  96
ENDBRANCH  67  95
ENDBRANCH  24  27
ENDBRANCH  23  24
ENDBRANCH  22  23
BRANCH  21 1272
ATOM   1272  O2'   G A   1     -39.445   6.810  49.639  1.00  0.00    -0.388 OA
ATOM   1273 'HO2   G A   1     -39.293   6.909  50.580  1.00  0.00     0.210 HD
ENDBRANCH  21 1272
TORSDOF 402
ENDMDL
MODEL 4
REMARK VINA RESULT:      -2.2      3.699      9.034
REMARK WARNING: 32 MAX_TORS EXCEEDED!!!
REMARK  101 active torsions:
REMARK  status: ('A' for Active; 'I' for Inactive)
REMARK       I    between atoms: O5'_2  and  C5'_3 
REMARK       I    between atoms: C5'_3  and  C4'_4 
REMARK       I    between atoms: C1'_6  and  N9_7 
REMARK       I    between atoms: C2_10  and  N2_11 
REMARK    1  A    between atoms: C2'_21  and  O2'_22 
REMARK    2  A    between atoms: C3'_24  and  O3'_25 
REMARK    3  A    between atoms: O3'_25  and  P_26 
REMARK    4  A    between atoms: P_26  and  O5'_29 
REMARK       I    between atoms: O5'_29  and  C5'_30 
REMARK       I    between atoms: C5'_30  and  C4'_31 
REMARK       I    between atoms: C1'_33  and  N9_34 
REMARK       I    between atoms: C2_37  and  N2_38 
REMARK       I    between atoms: C2'_48  and  O2'_49 
REMARK       I    between atoms: C3'_51  and  O3'_52 
REMARK       I    between atoms: O3'_52  and  P_53 
REMARK       I    between atoms: P_53  and  O5'_56 
REMARK       I    between atoms: O5'_56  and  C5'_57 
REMARK       I    between atoms: C5'_57  and  C4'_58 
REMARK       I    between atoms: C1'_60  and  N1_61 
REMARK       I    between atoms: C4_66  and  N4_67 
REMARK       I    between atoms: C2'_71  and  O2'_72 
REMARK       I    between atoms: C3'_74  and  O3'_75 
REMARK       I    between atoms: O3'_75  and  P_76 
REMARK       I    between atoms: P_76  and  O5'_79 
REMARK       I    between atoms: O5'_79  and  C5'_80 
REMARK       I    between atoms: C5'_80  and  C4'_81 
REMARK       I    between atoms: C1'_83  and  N1_84 
REMARK       I    between atoms: C2'_93  and  O2'_94 
REMARK    5  A    between atoms: C3'_96  and  O3'_97 
REMARK    6  A    between atoms: O3'_97  and  P_98 
REMARK    7  A    between atoms: P_98  and  O5'_101 
REMARK    8  A    between atoms: O5'_101  and  C5'_102 
REMARK    9  A    between atoms: C5'_102  and  C4'_103 
REMARK   10  A    between atoms: C1'_105  and  N1_106 
REMARK       I    between atoms: C4_111  and  N4_112 
REMARK   11  A    between atoms: C2'_116  and  O2'_117 
REMARK   12  A    between atoms: C3'_119  and  O3'_120 
REMARK   13  A    between atoms: O3'_120  and  P_121 
REMARK   14  A    between atoms: P_121  and  O5'_124 
REMARK   15  A    between atoms: O5'_124  and  C5'_125 
REMARK   16  A    between atoms: C5'_125  and  C4'_126 
REMARK   17  A    between atoms: C1'_128  and  N9_129 
REMARK       I    between atoms: C2_132  and  N2_133 
REMARK   18  A    between atoms: C2'_143  and  O2'_144 
REMARK   19  A    between atoms: C3'_146  and  O3'_147 
REMARK       I    between atoms: O3'_147  and  P_148 
REMARK       I    between atoms: P_148  and  O5'_151 
REMARK       I    between atoms: O5'_151  and  C5'_152 
REMARK       I    between atoms: C5'_152  and  C4'_153 
REMARK       I    between atoms: C1'_155  and  N1_156 
REMARK       I    between atoms: C2'_165  and  O2'_166 
REMARK       I    between atoms: C3'_168  and  O3'_169 
REMARK       I    between atoms: O3'_169  and  P_170 
REMARK       I    between atoms: P_170  and  O5'_173 
REMARK       I    between atoms: O5'_173  and  C5'_174 
REMARK       I    between atoms: C5'_174  and  C4'_175 
REMARK       I    between atoms: C1'_177  and  N1_178 
REMARK       I    between atoms: C2'_187  and  O2'_188 
REMARK       I    between atoms: C3'_190  and  O3'_191 
REMARK   20  A    between atoms: O3'_191  and  P_192 
REMARK   21  A    between atoms: P_192  and  O5'_195 
REMARK   22  A    between atoms: O5'_195  and  C5'_196 
REMARK       I    between atoms: C5'_196  and  C4'_197 
REMARK   23  A    between atoms: C1'_199  and  N9_200 
REMARK   24  A    between atoms: C2_203  and  N2_204 
REMARK       I    between atoms: C2'_214  and  O2'_215 
REMARK       I    between atoms: C3'_217  and  O3'_218 
REMARK       I    between atoms: O3'_218  and  P_219 
REMARK       I    between atoms: P_219  and  O5'_222 
REMARK       I    between atoms: O5'_222  and  C5'_223 
REMARK       I    between atoms: C5'_223  and  C4'_224 
REMARK       I    between atoms: C1'_226  and  N9_227 
REMARK       I    between atoms: C2_230  and  N2_231 
REMARK   25  A    between atoms: C2'_241  and  O2'_242 
REMARK   26  A    between atoms: C3'_244  and  O3'_245 
REMARK   27  A    between atoms: O3'_245  and  P_246 
REMARK   28  A    between atoms: P_246  and  O5'_249 
REMARK   29  A    between atoms: O5'_249  and  C5'_250 
REMARK   30  A    between atoms: C5'_250  and  C4'_251 
REMARK       I    between atoms: C1'_253  and  N1_254 
REMARK       I    between atoms: C2'_263  and  O2'_264 
REMARK       I    between atoms: C3'_266  and  O3'_267 
REMARK       I    between atoms: O3'_267  and  P_268 
REMARK       I    between atoms: P_268  and  O5'_271 
REMARK       I    between atoms: O5'_271  and  C5'_272 
REMARK       I    between atoms: C5'_272  and  C4'_273 
REMARK       I    between atoms: C1'_275  and  N1_276 
REMARK       I    between atoms: C4_281  and  N4_282 
REMARK   31  A    between atoms: C2'_286  and  O2'_287 
REMARK   32  A    between atoms: C3'_289  and  O3'_290 
REMARK   33  A    between atoms: O3'_290  and  P_291 
REMARK   34  A    between atoms: P_291  and  O5'_294 
REMARK   35  A    between atoms: O5'_294  and  C5'_295 
REMARK   36  A    between atoms: C5'_295  and  C4'_296 
REMARK   37  A    between atoms: C1'_298  and  N1_299 
REMARK       I    between atoms: C2'_308  and  O2'_309 
REMARK       I    between atoms: C3'_311  and  O3'_312 
REMARK       I    between atoms: O3'_312  and  P_313 
REMARK       I    between atoms: P_313  and  O5'_316 
REMARK       I    between atoms: O5'_316  and  C5'_317 
REMARK       I    between atoms: C5'_317  and  C4'_318 
REMARK       I    between atoms: C1'_320  and  N1_321 
REMARK       I    between atoms: C4_326  and  N4_327 
REMARK       I    between atoms: C2'_331  and  O2'_332 
REMARK       I    between atoms: C3'_334  and  O3'_335 
REMARK       I    between atoms: O3'_335  and  P_336 
REMARK       I    between atoms: P_336  and  O5'_339 
REMARK       I    between atoms: O5'_339  and  C5'_340 
REMARK       I    between atoms: C5'_340  and  C4'_341 
REMARK       I    between atoms: C1'_343  and  N9_344 
REMARK       I    between atoms: C2_347  and  N2_348 
REMARK       I    between atoms: C2'_358  and  O2'_359 
REMARK       I    between atoms: C3'_361  and  O3'_362 
REMARK       I    between atoms: O3'_362  and  P_363 
REMARK       I    between atoms: P_363  and  O5'_366 
REMARK       I    between atoms: O5'_366  and  C5'_367 
REMARK       I    between atoms: C5'_367  and  C4'_368 
REMARK       I    between atoms: C1'_370  and  N1_371 
REMARK       I    between atoms: C4_376  and  N4_377 
REMARK   38  A    between atoms: C2'_381  and  O2'_382 
REMARK   39  A    between atoms: C3'_384  and  O3'_385 
REMARK   40  A    between atoms: O3'_385  and  P_386 
REMARK   41  A    between atoms: P_386  and  O5'_389 
REMARK   42  A    between atoms: O5'_389  and  C5'_390 
REMARK   43  A    between atoms: C5'_390  and  C4'_391 
REMARK       I    between atoms: C1'_393  and  N1_394 
REMARK       I    between atoms: C2'_403  and  O2'_404 
REMARK   44  A    between atoms: C3'_406  and  O3'_407 
REMARK   45  A    between atoms: O3'_407  and  P_408 
REMARK   46  A    between atoms: P_408  and  O5'_411 
REMARK   47  A    between atoms: O5'_411  and  C5'_412 
REMARK       I    between atoms: C5'_412  and  C4'_413 
REMARK       I    between atoms: C1'_415  and  N1_416 
REMARK       I    between atoms: C2'_425  and  O2'_426 
REMARK       I    between atoms: C3'_428  and  O3'_429 
REMARK       I    between atoms: O3'_429  and  P_430 
REMARK       I    between atoms: P_430  and  O5'_433 
REMARK       I    between atoms: O5'_433  and  C5'_434 
REMARK       I    between atoms: C5'_434  and  C4'_435 
REMARK       I    between atoms: C1'_437  and  N1_438 
REMARK       I    between atoms: C2'_447  and  O2'_448 
REMARK       I    between atoms: C3'_450  and  O3'_451 
REMARK       I    between atoms: O3'_451  and  P_452 
REMARK       I    between atoms: P_452  and  O5'_455 
REMARK       I    between atoms: O5'_455  and  C5'_456 
REMARK       I    between atoms: C5'_456  and  C4'_457 
REMARK       I    between atoms: C1'_459  and  N9_460 
REMARK       I    between atoms: C2_463  and  N2_464 
REMARK       I    between atoms: C2'_474  and  O2'_475 
REMARK       I    between atoms: C3'_477  and  O3'_478 
REMARK       I    between atoms: O3'_478  and  P_479 
REMARK       I    between atoms: P_479  and  O5'_482 
REMARK       I    between atoms: O5'_482  and  C5'_483 
REMARK       I    between atoms: C5'_483  and  C4'_484 
REMARK       I    between atoms: C1'_486  and  N9_487 
REMARK       I    between atoms: C2_490  and  N2_491 
REMARK       I    between atoms: C2'_501  and  O2'_502 
REMARK       I    between atoms: C3'_504  and  O3'_505 
REMARK       I    between atoms: O3'_505  and  P_506 
REMARK       I    between atoms: P_506  and  O5'_509 
REMARK       I    between atoms: O5'_509  and  C5'_510 
REMARK       I    between atoms: C5'_510  and  C4'_511 
REMARK       I    between atoms: C1'_513  and  N9_514 
REMARK       I    between atoms: C2_517  and  N2_518 
REMARK       I    between atoms: C2'_528  and  O2'_529 
REMARK       I    between atoms: C3'_531  and  O3'_532 
REMARK       I    between atoms: O3'_532  and  P_533 
REMARK       I    between atoms: P_533  and  O5'_536 
REMARK       I    between atoms: O5'_536  and  C5'_537 
REMARK       I    between atoms: C5'_537  and  C4'_538 
REMARK       I    between atoms: C1'_540  and  N1_541 
REMARK       I    between atoms: C2'_550  and  O2'_551 
REMARK       I    between atoms: C3'_553  and  O3'_554 
REMARK       I    between atoms: O3'_554  and  P_555 
REMARK       I    between atoms: P_555  and  O5'_558 
REMARK       I    between atoms: O5'_558  and  C5'_559 
REMARK       I    between atoms: C5'_559  and  C4'_560 
REMARK       I    between atoms: C1'_562  and  N9_563 
REMARK       I    between atoms: C2_566  and  N2_567 
REMARK       I    between atoms: C2'_577  and  O2'_578 
REMARK       I    between atoms: C3'_580  and  O3'_581 
REMARK       I    between atoms: O3'_581  and  P_582 
REMARK       I    between atoms: P_582  and  O5'_585 
REMARK       I    between atoms: O5'_585  and  C5'_586 
REMARK   48  A    between atoms: C5'_586  and  C4'_587 
REMARK   49  A    between atoms: C1'_589  and  N1_590 
REMARK       I    between atoms: C4_595  and  N4_596 
REMARK   50  A    between atoms: C2'_600  and  O2'_601 
REMARK   51  A    between atoms: C3'_603  and  O3'_604 
REMARK   52  A    between atoms: O3'_604  and  P_605 
REMARK   53  A    between atoms: P_605  and  O5'_608 
REMARK   54  A    between atoms: O5'_608  and  C5'_609 
REMARK       I    between atoms: C5'_609  and  C4'_610 
REMARK       I    between atoms: C1'_612  and  N9_613 
REMARK       I    between atoms: C2_616  and  N2_617 
REMARK       I    between atoms: C2'_627  and  O2'_628 
REMARK       I    between atoms: C3'_630  and  O3'_631 
REMARK       I    between atoms: O3'_631  and  P_632 
REMARK       I    between atoms: P_632  and  O5'_635 
REMARK       I    between atoms: O5'_635  and  C5'_636 
REMARK       I    between atoms: C5'_636  and  C4'_637 
REMARK       I    between atoms: C1'_639  and  N9_640 
REMARK       I    between atoms: C6_645  and  N6_646 
REMARK       I    between atoms: C2'_652  and  O2'_653 
REMARK       I    between atoms: C3'_655  and  O3'_656 
REMARK       I    between atoms: O3'_656  and  P_657 
REMARK       I    between atoms: P_657  and  O5'_660 
REMARK       I    between atoms: O5'_660  and  C5'_661 
REMARK       I    between atoms: C5'_661  and  C4'_662 
REMARK       I    between atoms: C1'_664  and  N9_665 
REMARK   55  A    between atoms: C2_668  and  N2_669 
REMARK   56  A    between atoms: C2'_679  and  O2'_680 
REMARK   57  A    between atoms: C3'_682  and  O3'_683 
REMARK   58  A    between atoms: O3'_683  and  P_684 
REMARK   59  A    between atoms: P_684  and  O5'_687 
REMARK   60  A    between atoms: O5'_687  and  C5'_688 
REMARK   61  A    between atoms: C5'_688  and  C4'_689 
REMARK   62  A    between atoms: C1'_691  and  N9_692 
REMARK       I    between atoms: C6_697  and  N6_698 
REMARK       I    between atoms: C2'_704  and  O2'_705 
REMARK       I    between atoms: C3'_707  and  O3'_708 
REMARK       I    between atoms: O3'_708  and  P_709 
REMARK       I    between atoms: P_709  and  O5'_712 
REMARK       I    between atoms: O5'_712  and  C5'_713 
REMARK       I    between atoms: C5'_713  and  C4'_714 
REMARK       I    between atoms: C1'_716  and  N9_717 
REMARK       I    between atoms: C2_720  and  N2_721 
REMARK       I    between atoms: C2'_731  and  O2'_732 
REMARK       I    between atoms: C3'_734  and  O3'_735 
REMARK       I    between atoms: O3'_735  and  P_736 
REMARK       I    between atoms: P_736  and  O5'_739 
REMARK       I    between atoms: O5'_739  and  C5'_740 
REMARK       I    between atoms: C5'_740  and  C4'_741 
REMARK       I    between atoms: C1'_743  and  N9_744 
REMARK       I    between atoms: C2_747  and  N2_748 
REMARK       I    between atoms: C2'_758  and  O2'_759 
REMARK       I    between atoms: C3'_761  and  O3'_762 
REMARK       I    between atoms: O3'_762  and  P_763 
REMARK       I    between atoms: P_763  and  O5'_766 
REMARK       I    between atoms: O5'_766  and  C5'_767 
REMARK       I    between atoms: C5'_767  and  C4'_768 
REMARK       I    between atoms: C1'_770  and  N9_771 
REMARK       I    between atoms: C2_774  and  N2_775 
REMARK       I    between atoms: C2'_785  and  O2'_786 
REMARK       I    between atoms: C3'_788  and  O3'_789 
REMARK       I    between atoms: O3'_789  and  P_790 
REMARK       I    between atoms: P_790  and  O5'_793 
REMARK       I    between atoms: O5'_793  and  C5'_794 
REMARK       I    between atoms: C5'_794  and  C4'_795 
REMARK       I    between atoms: C1'_797  and  N1_798 
REMARK       I    between atoms: C2'_807  and  O2'_808 
REMARK       I    between atoms: C3'_810  and  O3'_811 
REMARK       I    between atoms: O3'_811  and  P_812 
REMARK       I    between atoms: P_812  and  O5'_815 
REMARK       I    between atoms: O5'_815  and  C5'_816 
REMARK       I    between atoms: C5'_816  and  C4'_817 
REMARK       I    between atoms: C1'_819  and  N1_820 
REMARK   63  A    between atoms: C2'_829  and  O2'_830 
REMARK   64  A    between atoms: C3'_832  and  O3'_833 
REMARK   65  A    between atoms: O3'_833  and  P_834 
REMARK   66  A    between atoms: P_834  and  O5'_837 
REMARK   67  A    between atoms: O5'_837  and  C5'_838 
REMARK   68  A    between atoms: C5'_838  and  C4'_839 
REMARK       I    between atoms: C1'_841  and  N1_842 
REMARK       I    between atoms: C4_847  and  N4_848 
REMARK       I    between atoms: C2'_852  and  O2'_853 
REMARK       I    between atoms: C3'_855  and  O3'_856 
REMARK       I    between atoms: O3'_856  and  P_857 
REMARK       I    between atoms: P_857  and  O5'_860 
REMARK       I    between atoms: O5'_860  and  C5'_861 
REMARK       I    between atoms: C5'_861  and  C4'_862 
REMARK       I    between atoms: C1'_864  and  N9_865 
REMARK       I    between atoms: C6_870  and  N6_871 
REMARK       I    between atoms: C2'_877  and  O2'_878 
REMARK       I    between atoms: C3'_880  and  O3'_881 
REMARK       I    between atoms: O3'_881  and  P_882 
REMARK       I    between atoms: P_882  and  O5'_885 
REMARK   69  A    between atoms: O5'_885  and  C5'_886 
REMARK   70  A    between atoms: C5'_886  and  C4'_887 
REMARK   71  A    between atoms: C1'_889  and  N9_890 
REMARK       I    between atoms: C6_895  and  N6_896 
REMARK   72  A    between atoms: C2'_902  and  O2'_903 
REMARK   73  A    between atoms: C3'_905  and  O3'_906 
REMARK   74  A    between atoms: O3'_906  and  P_907 
REMARK   75  A    between atoms: P_907  and  O5'_910 
REMARK   76  A    between atoms: O5'_910  and  C5'_911 
REMARK   77  A    between atoms: C5'_911  and  C4'_912 
REMARK   78  A    between atoms: C1'_914  and  N9_915 
REMARK       I    between atoms: C6_920  and  N6_921 
REMARK       I    between atoms: C2'_927  and  O2'_928 
REMARK   79  A    between atoms: C3'_930  and  O3'_931 
REMARK       I    between atoms: O3'_931  and  P_932 
REMARK       I    between atoms: P_932  and  O5'_935 
REMARK       I    between atoms: O5'_935  and  C5'_936 
REMARK       I    between atoms: C5'_936  and  C4'_937 
REMARK       I    between atoms: C1'_939  and  N1_940 
REMARK       I    between atoms: C2'_949  and  O2'_950 
REMARK       I    between atoms: C3'_952  and  O3'_953 
REMARK       I    between atoms: O3'_953  and  P_954 
REMARK       I    between atoms: P_954  and  O5'_957 
REMARK       I    between atoms: O5'_957  and  C5'_958 
REMARK       I    between atoms: C5'_958  and  C4'_959 
REMARK       I    between atoms: C1'_961  and  N1_962 
REMARK       I    between atoms: C4_967  and  N4_968 
REMARK       I    between atoms: C2'_972  and  O2'_973 
REMARK       I    between atoms: C3'_975  and  O3'_976 
REMARK       I    between atoms: O3'_976  and  P_977 
REMARK       I    between atoms: P_977  and  O5'_980 
REMARK       I    between atoms: O5'_980  and  C5'_981 
REMARK       I    between atoms: C5'_981  and  C4'_982 
REMARK       I    between atoms: C1'_984  and  N1_985 
REMARK       I    between atoms: C4_990  and  N4_991 
REMARK       I    between atoms: C2'_995  and  O2'_996 
REMARK       I    between atoms: C3'_998  and  O3'_999 
REMARK       I    between atoms: O3'_999  and  P_1000 
REMARK       I    between atoms: P_1000  and  O5'_1003 
REMARK       I    between atoms: O5'_1003  and  C5'_1004 
REMARK       I    between atoms: C5'_1004  and  C4'_1005 
REMARK   80  A    between atoms: C1'_1007  and  N1_1008 
REMARK       I    between atoms: C4_1013  and  N4_1014 
REMARK   81  A    between atoms: C2'_1018  and  O2'_1019 
REMARK   82  A    between atoms: C3'_1021  and  O3'_1022 
REMARK   83  A    between atoms: O3'_1022  and  P_1023 
REMARK   84  A    between atoms: P_1023  and  O5'_1026 
REMARK   85  A    between atoms: O5'_1026  and  C5'_1027 
REMARK   86  A    between atoms: C5'_1027  and  C4'_1028 
REMARK   87  A    between atoms: C1'_1030  and  N9_1031 
REMARK       I    between atoms: C2_1034  and  N2_1035 
REMARK       I    between atoms: C2'_1045  and  O2'_1046 
REMARK       I    between atoms: C3'_1048  and  O3'_1049 
REMARK       I    between atoms: O3'_1049  and  P_1050 
REMARK       I    between atoms: P_1050  and  O5'_1053 
REMARK       I    between atoms: O5'_1053  and  C5'_1054 
REMARK       I    between atoms: C5'_1054  and  C4'_1055 
REMARK       I    between atoms: C1'_1057  and  N9_1058 
REMARK       I    between atoms: C2_1061  and  N2_1062 
REMARK   88  A    between atoms: C2'_1072  and  O2'_1073 
REMARK   89  A    between atoms: C3'_1075  and  O3'_1076 
REMARK   90  A    between atoms: O3'_1076  and  P_1077 
REMARK       I    between atoms: P_1077  and  O5'_1080 
REMARK       I    between atoms: O5'_1080  and  C5'_1081 
REMARK       I    between atoms: C5'_1081  and  C4'_1082 
REMARK       I    between atoms: C1'_1084  and  N9_1085 
REMARK       I    between atoms: C6_1090  and  N6_1091 
REMARK       I    between atoms: C2'_1097  and  O2'_1098 
REMARK       I    between atoms: C3'_1100  and  O3'_1101 
REMARK   91  A    between atoms: O3'_1101  and  P_1102 
REMARK   92  A    between atoms: P_1102  and  O5'_1105 
REMARK   93  A    between atoms: O5'_1105  and  C5'_1106 
REMARK   94  A    between atoms: C5'_1106  and  C4'_1107 
REMARK   95  A    between atoms: C1'_1109  and  N1_1110 
REMARK       I    between atoms: C4_1115  and  N4_1116 
REMARK   96  A    between atoms: C2'_1120  and  O2'_1121 
REMARK   97  A    between atoms: C3'_1123  and  O3'_1124 
REMARK   98  A    between atoms: O3'_1124  and  P_1125 
REMARK   99  A    between atoms: P_1125  and  O5'_1128 
REMARK  100  A    between atoms: O5'_1128  and  C5'_1129 
REMARK  101  A    between atoms: C5'_1129  and  C4'_1130 
REMARK       I    between atoms: C1'_1132  and  N9_1133 
REMARK       I    between atoms: C2_1136  and  N2_1137 
REMARK       I    between atoms: C2'_1147  and  O2'_1148 
REMARK       I    between atoms: C3'_1150  and  O3'_1151 
REMARK       I    between atoms: O3'_1151  and  P_1152 
REMARK       I    between atoms: P_1152  and  O5'_1155 
REMARK       I    between atoms: O5'_1155  and  C5'_1156 
REMARK       I    between atoms: C5'_1156  and  C4'_1157 
REMARK       I    between atoms: C1'_1159  and  N9_1160 
REMARK       I    between atoms: C6_1165  and  N6_1166 
REMARK       I    between atoms: C2'_1172  and  O2'_1173 
REMARK       I    between atoms: C3'_1175  and  O3'_1176 
REMARK       I    between atoms: O3'_1176  and  P_1177 
REMARK       I    between atoms: P_1177  and  O5'_1180 
REMARK       I    between atoms: O5'_1180  and  C5'_1181 
REMARK       I    between atoms: C5'_1181  and  C4'_1182 
REMARK       I    between atoms: C1'_1184  and  N9_1185 
REMARK       I    between atoms: C2_1188  and  N2_1189 
REMARK       I    between atoms: C2'_1199  and  O2'_1200 
REMARK       I    between atoms: C3'_1202  and  O3'_1203 
REMARK       I    between atoms: O3'_1203  and  P_1204 
REMARK       I    between atoms: P_1204  and  O5'_1207 
REMARK       I    between atoms: O5'_1207  and  C5'_1208 
REMARK       I    between atoms: C5'_1208  and  C4'_1209 
REMARK       I    between atoms: C1'_1211  and  N1_1212 
REMARK       I    between atoms: C4_1217  and  N4_1218 
REMARK       I    between atoms: C2'_1222  and  O2'_1223 
REMARK       I    between atoms: C3'_1225  and  O3'_1226 
REMARK       I    between atoms: O3'_1226  and  P_1227 
REMARK       I    between atoms: P_1227  and  O5'_1230 
REMARK       I    between atoms: O5'_1230  and  C5'_1231 
REMARK       I    between atoms: C5'_1231  and  C4'_1232 
REMARK       I    between atoms: C1'_1234  and  N1_1235 
REMARK       I    between atoms: C4_1240  and  N4_1241 
REMARK       I    between atoms: C2'_1245  and  O2'_1246 
REMARK       I    between atoms: C3'_1248  and  O3'_1249 
REMARK       I    between atoms: O3'_1249  and  P_1250 
REMARK       I    between atoms: P_1250  and  O5'_1253 
REMARK       I    between atoms: O5'_1253  and  C5'_1254 
REMARK       I    between atoms: C5'_1254  and  C4'_1255 
REMARK       I    between atoms: C1'_1257  and  N1_1258 
REMARK       I    between atoms: C4_1263  and  N4_1264 
REMARK       I    between atoms: C2'_1268  and  O2'_1269 
REMARK       I    between atoms: C3'_1271  and  O3'_1272 
ROOT
ATOM      1 'HO5   G A   1     -41.615   3.511  51.166  1.00  0.00     0.209 HD
ATOM      2  O5'   G A   1     -42.376   3.690  51.724  1.00  0.00    -0.398 OA
ATOM      3  C5'   G A   1     -42.305   5.067  52.105  1.00  0.00     0.198 C 
ATOM      4  C4'   G A   1     -41.273   5.801  51.281  1.00  0.00     0.180 C 
ATOM      5  O4'   G A   1     -39.953   5.294  51.626  1.00  0.00    -0.353 OA
ATOM      6  C1'   G A   1     -39.193   5.093  50.449  1.00  0.00     0.262 C 
ATOM      7  N9    G A   1     -39.011   3.657  50.258  1.00  0.00    -0.293 N 
ATOM      8  C4    G A   1     -38.376   3.048  49.202  1.00  0.00     0.187 A 
ATOM      9  N3    G A   1     -37.802   3.674  48.154  1.00  0.00    -0.044 NA
ATOM     10  C2    G A   1     -37.275   2.818  47.297  1.00  0.00     0.703 A 
ATOM     11  N2    G A   1     -36.666   3.269  46.198  1.00  0.00    -0.233 N 
ATOM     12  H21   G A   1     -36.615   4.263  46.034  1.00  0.00     0.174 HD
ATOM     13  H22   G A   1     -36.261   2.620  45.538  1.00  0.00     0.174 HD
ATOM     14  N1    G A   1     -37.307   1.457  47.454  1.00  0.00    -0.153 N 
ATOM     15  H1    G A   1     -36.873   0.895  46.739  1.00  0.00     0.187 HD
ATOM     16  C6    G A   1     -37.890   0.788  48.524  1.00  0.00     0.292 A 
ATOM     17  O6    G A   1     -37.860  -0.448  48.567  1.00  0.00    -0.265 OA
ATOM     18  C5    G A   1     -38.463   1.695  49.455  1.00  0.00     0.173 A 
ATOM     19  N7    G A   1     -39.135   1.457  50.646  1.00  0.00    -0.234 NA
ATOM     20  C8    G A   1     -39.439   2.648  51.086  1.00  0.00     0.214 A 
ATOM     21  C2'   G A   1     -39.946   5.775  49.309  1.00  0.00     0.199 C 
ATOM     22  C3'   G A   1     -41.387   5.608  49.773  1.00  0.00     0.198 C 
ENDROOT
BRANCH  22  23
ATOM     23  O3'   G A   1     -42.264   6.567  49.188  1.00  0.00    -0.279 OA
BRANCH  23  24
ATOM     24  P     G A   2     -42.529   7.968  49.932  1.00  0.00     0.408 P 
ATOM     25  OP2   G A   2     -43.962   8.034  50.317  1.00  0.00    -0.624 OA
ATOM     26  OP1   G A   2     -41.481   8.117  50.973  1.00  0.00    -0.624 OA
BRANCH  24  27
ATOM     27  O5'   G A   2     -42.265   9.060  48.802  1.00  0.00    -0.287 OA
ATOM     28  C5'   G A   2     -43.119  10.194  48.663  1.00  0.00     0.216 C 
ATOM     29  C4'   G A   2     -42.698  11.022  47.471  1.00  0.00     0.180 C 
ATOM     30  C3'   G A   2     -42.480  10.254  46.177  1.00  0.00     0.198 C 
ATOM     31  O4'   G A   2     -41.406  11.627  47.743  1.00  0.00    -0.353 OA
ATOM     32  C2'   G A   2     -41.539  11.175  45.411  1.00  0.00     0.199 C 
ATOM     33  O3'   G A   2     -43.705  10.025  45.485  1.00  0.00    -0.279 OA
ATOM     34  O2'   G A   2     -42.241  12.263  44.838  1.00  0.00    -0.388 OA
ATOM     35  C1'   G A   2     -40.656  11.703  46.542  1.00  0.00     0.262 C 
ATOM     36 'HO2   G A   2     -43.154  11.986  44.753  1.00  0.00     0.210 HD
ATOM     37  N9    G A   2     -39.421  10.945  46.720  1.00  0.00    -0.293 N 
ATOM     38  C8    G A   2     -39.105  10.100  47.755  1.00  0.00     0.214 A 
ATOM     39  C4    G A   2     -38.338  10.940  45.873  1.00  0.00     0.187 A 
ATOM     40  N7    G A   2     -37.921   9.565  47.641  1.00  0.00    -0.234 NA
ATOM     41  C5    G A   2     -37.423  10.088  46.455  1.00  0.00     0.173 A 
ATOM     42  C6    G A   2     -36.180   9.875  45.803  1.00  0.00     0.292 A 
ATOM     43  O6    G A   2     -35.236   9.159  46.157  1.00  0.00    -0.265 OA
ATOM     44  N1    G A   2     -36.092  10.601  44.621  1.00  0.00    -0.153 N 
ATOM     45  H1    G A   2     -35.243  10.512  44.085  1.00  0.00     0.187 HD
ATOM     46  C2    G A   2     -37.069  11.426  44.129  1.00  0.00     0.703 A 
ATOM     47  N2    G A   2     -36.796  12.038  42.974  1.00  0.00    -0.233 N 
ATOM     48  N3    G A   2     -38.229  11.636  44.723  1.00  0.00    -0.044 NA
ATOM     49  H22   G A   2     -35.910  11.883  42.512  1.00  0.00     0.174 HD
ATOM     50  H21   G A   2     -37.481  12.657  42.567  1.00  0.00     0.174 HD
ATOM     51  P     C A   3     -43.845   8.758  44.505  1.00  0.00     0.408 P 
ATOM     52  OP2   C A   3     -43.401   7.544  45.235  1.00  0.00    -0.624 OA
ATOM     53  O5'   C A   3     -42.795   9.051  43.342  1.00  0.00    -0.287 OA
ATOM     54  OP1   C A   3     -45.208   8.802  43.917  1.00  0.00    -0.624 OA
ATOM     55  C5'   C A   3     -42.939  10.188  42.493  1.00  0.00     0.216 C 
ATOM     56  C4'   C A   3     -41.875  10.179  41.421  1.00  0.00     0.180 C 
ATOM     57  C3'   C A   3     -41.586   8.829  40.781  1.00  0.00     0.198 C 
ATOM     58  O4'   C A   3     -40.599  10.558  42.005  1.00  0.00    -0.353 OA
ATOM     59  O3'   C A   3     -42.529   8.501  39.766  1.00  0.00    -0.279 OA
ATOM     60  C2'   C A   3     -40.182   9.037  40.230  1.00  0.00     0.199 C 
ATOM     61  P     T A   4     -42.750   6.963  39.350  1.00  0.00     0.408 P 
ATOM     62  O5'   T A   4     -41.373   6.548  38.664  1.00  0.00    -0.287 OA
ATOM     63  OP1   T A   4     -43.813   6.932  38.314  1.00  0.00    -0.624 OA
ATOM     64  OP2   T A   4     -42.910   6.160  40.590  1.00  0.00    -0.624 OA
ATOM     65  C5'   T A   4     -41.041   7.004  37.353  1.00  0.00     0.216 C 
ATOM     66  C4'   T A   4     -39.576   6.758  37.064  1.00  0.00     0.180 C 
ATOM     67  C3'   T A   4     -39.182   5.311  36.816  1.00  0.00     0.198 C 
ATOM     68  O4'   T A   4     -38.775   7.118  38.218  1.00  0.00    -0.353 OA
ATOM     69  C2'   T A   4     -37.677   5.347  37.063  1.00  0.00     0.199 C 
ATOM     70  O2'   T A   4     -36.988   5.885  35.950  1.00  0.00    -0.388 OA
ATOM     71  C1'   T A   4     -37.585   6.346  38.221  1.00  0.00     0.264 C 
ATOM     72 'HO2   T A   4     -37.372   5.489  35.167  1.00  0.00     0.210 HD
ATOM     73  N1    T A   4     -37.444   5.702  39.535  1.00  0.00    -0.280 N 
ATOM     74  C2    T A   4     -36.218   5.145  39.848  1.00  0.00     0.331 A 
ATOM     75  C6    T A   4     -38.493   5.651  40.426  1.00  0.00     0.104 A 
ATOM     76  O2    T A   4     -35.265   5.171  39.090  1.00  0.00    -0.246 OA
ATOM     77  N3    T A   4     -36.146   4.554  41.082  1.00  0.00    -0.275 N 
ATOM     78  H3    T A   4     -35.259   4.139  41.328  1.00  0.00     0.173 HD
ATOM     79  C4    T A   4     -37.150   4.466  42.018  1.00  0.00     0.250 A 
ATOM     80  C5    T A   4     -38.385   5.067  41.624  1.00  0.00     0.092 A 
ATOM     81  O4    T A   4     -36.929   3.897  43.088  1.00  0.00    -0.268 OA
ATOM     82  C1'   C A   3     -39.551   9.862  41.351  1.00  0.00     0.264 C 
ATOM     83  O2'   C A   3     -40.202   9.818  39.049  1.00  0.00    -0.388 OA
ATOM     84  N1    C A   3     -38.838   9.043  42.345  1.00  0.00    -0.278 N 
ATOM     85  C2    C A   3     -37.525   8.653  42.075  1.00  0.00     0.352 A 
ATOM     86  C6    C A   3     -39.444   8.664  43.511  1.00  0.00     0.102 A 
ATOM     87  N3    C A   3     -36.860   7.895  42.975  1.00  0.00    -0.177 NA
ATOM     88  O2    C A   3     -36.999   9.011  41.013  1.00  0.00    -0.244 OA
ATOM     89  C4    C A   3     -37.458   7.530  44.109  1.00  0.00     0.128 A 
ATOM     90  N4    C A   3     -36.762   6.785  44.965  1.00  0.00    -0.384 N 
ATOM     91  C5    C A   3     -38.796   7.915  44.415  1.00  0.00     0.067 A 
ATOM     92  H41   C A   3     -37.175   6.486  45.836  1.00  0.00     0.157 HD
ATOM     93  H42   C A   3     -35.813   6.519  44.737  1.00  0.00     0.157 HD
ATOM     94 'HO2   C A   3     -40.965   9.537  38.544  1.00  0.00     0.210 HD
BRANCH  67  95
ATOM     95  O3'   T A   4     -39.511   4.889  35.495  1.00  0.00    -0.279 OA
BRANCH  95  96
ATOM     96  P     C A   5     -40.288   3.498  35.271  1.00  0.00     0.408 P 
ATOM     97  OP1   C A   5     -39.599   2.779  34.169  1.00  0.00    -0.624 OA
ATOM     98  OP2   C A   5     -41.742   3.783  35.165  1.00  0.00    -0.624 OA
BRANCH  96  99
ATOM     99  O5'   C A   5     -40.038   2.693  36.623  1.00  0.00    -0.287 OA
BRANCH  99 100
ATOM    100  C5'   C A   5     -38.899   1.849  36.775  1.00  0.00     0.216 C 
BRANCH 100 101
ATOM    101  C4'   C A   5     -38.369   1.933  38.188  1.00  0.00     0.180 C 
ATOM    102  C3'   C A   5     -37.934   0.616  38.812  1.00  0.00     0.198 C 
ATOM    103  C2'   C A   5     -37.992   0.928  40.305  1.00  0.00     0.199 C 
ATOM    104  C1'   C A   5     -39.194   1.873  40.376  1.00  0.00     0.264 C 
ATOM    105  O4'   C A   5     -39.422   2.387  39.074  1.00  0.00    -0.353 OA
BRANCH 102 106
ATOM    106  O3'   C A   5     -36.631   0.232  38.385  1.00  0.00    -0.279 OA
BRANCH 106 107
ATOM    107  P     G A   6     -36.014  -1.175  38.866  1.00  0.00     0.408 P 
ATOM    108  OP1   G A   6     -37.158  -2.077  39.161  1.00  0.00    -0.624 OA
ATOM    109  OP2   G A   6     -34.998  -0.910  39.916  1.00  0.00    -0.624 OA
BRANCH 107 110
ATOM    110  O5'   G A   6     -35.262  -1.731  37.574  1.00  0.00    -0.287 OA
BRANCH 110 111
ATOM    111  C5'   G A   6     -35.572  -1.236  36.274  1.00  0.00     0.216 C 
BRANCH 111 112
ATOM    112  C4'   G A   6     -34.305  -1.007  35.482  1.00  0.00     0.180 C 
ATOM    113  C3'   G A   6     -33.680  -2.248  34.861  1.00  0.00     0.198 C 
ATOM    114  C2'   G A   6     -32.229  -1.821  34.686  1.00  0.00     0.199 C 
ATOM    115  C1'   G A   6     -32.007  -0.999  35.955  1.00  0.00     0.262 C 
ATOM    116  O4'   G A   6     -33.269  -0.501  36.368  1.00  0.00    -0.353 OA
BRANCH 113 117
ATOM    117  O3'   G A   6     -34.304  -2.589  33.626  1.00  0.00    -0.279 OA
ATOM    118  P     T A   7     -33.956  -1.752  32.296  1.00  0.00     0.408 P 
ATOM    119  OP1   T A   7     -34.669  -2.400  31.165  1.00  0.00    -0.624 OA
ATOM    120  OP2   T A   7     -32.485  -1.565  32.225  1.00  0.00    -0.624 OA
ATOM    121  O5'   T A   7     -34.623  -0.327  32.550  1.00  0.00    -0.287 OA
ATOM    122  C5'   T A   7     -36.041  -0.182  32.621  1.00  0.00     0.216 C 
ATOM    123  C4'   T A   7     -36.400   1.186  33.154  1.00  0.00     0.180 C 
ATOM    124  C3'   T A   7     -35.953   2.362  32.297  1.00  0.00     0.198 C 
ATOM    125  O4'   T A   7     -35.724   1.396  34.418  1.00  0.00    -0.353 OA
ATOM    126  O3'   T A   7     -36.885   2.624  31.250  1.00  0.00    -0.279 OA
ATOM    127  C2'   T A   7     -35.875   3.503  33.306  1.00  0.00     0.199 C 
ATOM    128  P     T A   8     -36.440   3.515  29.987  1.00  0.00     0.408 P 
ATOM    129  OP2   T A   8     -34.957   3.503  29.903  1.00  0.00    -0.624 OA
ATOM    130  OP1   T A   8     -37.245   3.067  28.824  1.00  0.00    -0.624 OA
ATOM    131  O5'   T A   8     -36.902   4.990  30.376  1.00  0.00    -0.287 OA
ATOM    132  C5'   T A   8     -38.284   5.344  30.423  1.00  0.00     0.216 C 
ATOM    133  C4'   T A   8     -38.432   6.838  30.601  1.00  0.00     0.180 C 
ATOM    134  C3'   T A   8     -37.619   7.688  29.631  1.00  0.00     0.198 C 
ATOM    135  O4'   T A   8     -37.941   7.199  31.923  1.00  0.00    -0.353 OA
ATOM    136  C2'   T A   8     -37.336   8.945  30.443  1.00  0.00     0.199 C 
ATOM    137  O3'   T A   8     -38.348   7.969  28.439  1.00  0.00    -0.279 OA
ATOM    138  O2'   T A   8     -38.464   9.800  30.470  1.00  0.00    -0.388 OA
ATOM    139  C1'   T A   8     -37.129   8.355  31.835  1.00  0.00     0.264 C 
ATOM    140 'HO2   T A   8     -39.036   9.518  29.756  1.00  0.00     0.210 HD
ATOM    141  N1    T A   8     -35.737   7.969  32.113  1.00  0.00    -0.280 N 
ATOM    142  C2    T A   8     -34.911   8.910  32.702  1.00  0.00     0.331 A 
ATOM    143  C6    T A   8     -35.271   6.715  31.797  1.00  0.00     0.104 A 
ATOM    144  O2    T A   8     -35.285  10.029  33.000  1.00  0.00    -0.246 OA
ATOM    145  N3    T A   8     -33.626   8.489  32.930  1.00  0.00    -0.275 N 
ATOM    146  H3    T A   8     -33.004   9.158  33.355  1.00  0.00     0.173 HD
ATOM    147  C4    T A   8     -33.095   7.252  32.637  1.00  0.00     0.250 A 
ATOM    148  C5    T A   8     -34.012   6.340  32.034  1.00  0.00     0.092 A 
ATOM    149  O4    T A   8     -31.917   7.021  32.909  1.00  0.00    -0.268 OA
ATOM    150  O2'   T A   7     -37.151   4.067  33.540  1.00  0.00    -0.388 OA
ATOM    151  C1'   T A   7     -35.426   2.772  34.574  1.00  0.00     0.264 C 
ATOM    152 'HO2   T A   7     -37.681   3.901  32.759  1.00  0.00     0.210 HD
ATOM    153  N1    T A   7     -33.990   2.906  34.855  1.00  0.00    -0.280 N 
ATOM    154  C6    T A   7     -33.110   1.876  34.607  1.00  0.00     0.104 A 
ATOM    155  C2    T A   7     -33.548   4.106  35.380  1.00  0.00     0.331 A 
ATOM    156  C5    T A   7     -31.802   1.975  34.863  1.00  0.00     0.092 A 
ATOM    157  C4    T A   7     -31.271   3.183  35.410  1.00  0.00     0.250 A 
ATOM    158  N3    T A   7     -32.202   4.171  35.628  1.00  0.00    -0.275 N 
ATOM    159  O4    T A   7     -30.091   3.394  35.690  1.00  0.00    -0.268 OA
ATOM    160  H3    T A   7     -31.863   5.043  36.007  1.00  0.00     0.173 HD
ATOM    161  O2    T A   7     -34.291   5.042  35.610  1.00  0.00    -0.246 OA
BRANCH 137 162
ATOM    162  P     G A   9     -37.572   8.069  27.034  1.00  0.00     0.408 P 
ATOM    163  OP2   G A   9     -37.727   6.773  26.325  1.00  0.00    -0.624 OA
ATOM    164  OP1   G A   9     -38.017   9.323  26.373  1.00  0.00    -0.624 OA
BRANCH 162 165
ATOM    165  O5'   G A   9     -36.041   8.235  27.444  1.00  0.00    -0.287 OA
BRANCH 165 166
ATOM    166  C5'   G A   9     -35.449   9.527  27.568  1.00  0.00     0.216 C 
ATOM    167  C4'   G A   9     -33.968   9.456  27.269  1.00  0.00     0.180 C 
ATOM    168  C3'   G A   9     -33.601   9.019  25.857  1.00  0.00     0.198 C 
ATOM    169  O4'   G A   9     -33.362   8.453  28.130  1.00  0.00    -0.353 OA
ATOM    170  O3'   G A   9     -33.592  10.120  24.951  1.00  0.00    -0.279 OA
ATOM    171  C2'   G A   9     -32.214   8.416  26.048  1.00  0.00     0.199 C 
ATOM    172  P     G A  10     -33.837   9.866  23.381  1.00  0.00     0.408 P 
ATOM    173  OP1   G A  10     -33.845  11.196  22.718  1.00  0.00    -0.624 OA
ATOM    174  OP2   G A  10     -35.008   8.965  23.225  1.00  0.00    -0.624 OA
ATOM    175  O5'   G A  10     -32.534   9.085  22.902  1.00  0.00    -0.287 OA
ATOM    176  C5'   G A  10     -31.235   9.662  23.039  1.00  0.00     0.216 C 
ATOM    177  C4'   G A  10     -30.175   8.665  22.630  1.00  0.00     0.180 C 
ATOM    178  O4'   G A  10     -30.466   7.386  23.267  1.00  0.00    -0.353 OA
ATOM    179  C3'   G A  10     -30.100   8.376  21.131  1.00  0.00     0.198 C 
ATOM    180  C1'   G A  10     -30.526   6.375  22.285  1.00  0.00     0.262 C 
ATOM    181  C2'   G A  10     -30.891   7.081  20.985  1.00  0.00     0.199 C 
ATOM    182  N9    G A  10     -31.485   5.362  22.713  1.00  0.00    -0.293 N 
ATOM    183  C8    G A  10     -32.647   5.560  23.419  1.00  0.00     0.214 A 
ATOM    184  C4    G A  10     -31.400   4.011  22.479  1.00  0.00     0.187 A 
ATOM    185  N7    G A  10     -33.305   4.456  23.647  1.00  0.00    -0.234 NA
ATOM    186  C5    G A  10     -32.528   3.467  23.057  1.00  0.00     0.173 A 
ATOM    187  C6    G A  10     -32.728   2.063  22.976  1.00  0.00     0.292 A 
ATOM    188  O6    G A  10     -33.662   1.387  23.425  1.00  0.00    -0.265 OA
ATOM    189  N1    G A  10     -31.695   1.440  22.286  1.00  0.00    -0.153 N 
ATOM    190  H1    G A  10     -31.750   0.440  22.174  1.00  0.00     0.187 HD
ATOM    191  C2    G A  10     -30.608   2.080  21.749  1.00  0.00     0.703 A 
ATOM    192  N3    G A  10     -30.408   3.383  21.817  1.00  0.00    -0.044 NA
ATOM    193  N2    G A  10     -29.716   1.306  21.127  1.00  0.00    -0.233 N 
ATOM    194  H22   G A  10     -29.863   0.308  21.066  1.00  0.00     0.174 HD
ATOM    195  H21   G A  10     -28.895   1.724  20.714  1.00  0.00     0.174 HD
ATOM    196  O2'   G A   9     -31.226   9.426  26.151  1.00  0.00    -0.388 OA
ATOM    197  C1'   G A   9     -32.367   7.744  27.413  1.00  0.00     0.262 C 
ATOM    198 'HO2   G A   9     -31.630  10.237  25.840  1.00  0.00     0.210 HD
BRANCH 181 199
ATOM    199  O2'   G A  10     -30.419   6.311  19.895  1.00  0.00    -0.388 OA
ATOM    200 'HO2   G A  10     -30.753   6.724  19.098  1.00  0.00     0.210 HD
ENDBRANCH 181 199
BRANCH 179 201
ATOM    201  O3'   G A  10     -28.749   8.228  20.699  1.00  0.00    -0.279 OA
BRANCH 201 202
ATOM    202  P     T A  11     -27.582   9.064  21.423  1.00  0.00     0.408 P 
ATOM    203  OP2   T A  11     -28.166  10.327  21.944  1.00  0.00    -0.624 OA
ATOM    204  OP1   T A  11     -26.880   8.145  22.353  1.00  0.00    -0.624 OA
BRANCH 202 205
ATOM    205  O5'   T A  11     -26.583   9.437  20.239  1.00  0.00    -0.287 OA
BRANCH 205 206
ATOM    206  C5'   T A  11     -26.426  10.785  19.798  1.00  0.00     0.216 C 
BRANCH 206 207
ATOM    207  C4'   T A  11     -25.219  10.900  18.895  1.00  0.00     0.180 C 
ATOM    208  O4'   T A  11     -25.321  12.134  18.124  1.00  0.00    -0.353 OA
ATOM    209  C1'   T A  11     -24.078  12.813  18.141  1.00  0.00     0.264 C 
ATOM    210  C2'   T A  11     -23.041  11.805  18.628  1.00  0.00     0.199 C 
ATOM    211  N1    T A  11     -24.205  13.998  19.004  1.00  0.00    -0.280 N 
ATOM    212  O2'   T A  11     -22.625  11.009  17.534  1.00  0.00    -0.388 OA
ATOM    213  C3'   T A  11     -23.876  10.997  19.612  1.00  0.00     0.198 C 
ATOM    214 'HO2   T A  11     -22.500  10.122  17.871  1.00  0.00     0.210 HD
ATOM    215  O3'   T A  11     -23.322   9.711  19.871  1.00  0.00    -0.279 OA
ATOM    216  P     C A  12     -22.526   9.444  21.244  1.00  0.00     0.408 P 
ATOM    217  O5'   C A  12     -21.153  10.229  21.052  1.00  0.00    -0.287 OA
ATOM    218  OP2   C A  12     -23.274  10.088  22.354  1.00  0.00    -0.624 OA
ATOM    219  OP1   C A  12     -22.227   7.991  21.308  1.00  0.00    -0.624 OA
ATOM    220  C5'   C A  12     -20.147   9.744  20.164  1.00  0.00     0.216 C 
ATOM    221  C4'   C A  12     -19.023  10.748  20.047  1.00  0.00     0.180 C 
ATOM    222  O4'   C A  12     -19.572  12.025  19.618  1.00  0.00    -0.353 OA
ATOM    223  C3'   C A  12     -18.293  11.069  21.342  1.00  0.00     0.198 C 
ATOM    224  C1'   C A  12     -18.895  13.081  20.278  1.00  0.00     0.264 C 
ATOM    225  C2'   C A  12     -17.744  12.463  21.068  1.00  0.00     0.199 C 
ATOM    226  N1    C A  12     -19.864  13.805  21.118  1.00  0.00    -0.278 N 
ATOM    227  C6    C A  12     -21.099  13.280  21.376  1.00  0.00     0.102 A 
ATOM    228  C2    C A  12     -19.499  15.046  21.653  1.00  0.00     0.352 A 
ATOM    229  C5    C A  12     -21.984  13.936  22.136  1.00  0.00     0.067 A 
ATOM    230  C4    C A  12     -21.587  15.198  22.665  1.00  0.00     0.128 A 
ATOM    231  N3    C A  12     -20.383  15.719  22.423  1.00  0.00    -0.177 NA
ATOM    232  N4    C A  12     -22.424  15.899  23.428  1.00  0.00    -0.384 N 
ATOM    233  H42   C A  12     -22.137  16.793  23.798  1.00  0.00     0.157 HD
ATOM    234  H41   C A  12     -23.346  15.540  23.635  1.00  0.00     0.157 HD
ATOM    235  O2    C A  12     -18.372  15.499  21.409  1.00  0.00    -0.244 OA
ATOM    236  C6    T A  11     -25.363  14.251  19.705  1.00  0.00     0.104 A 
ATOM    237  C2    T A  11     -23.118  14.849  19.094  1.00  0.00     0.331 A 
ATOM    238  C5    T A  11     -25.494  15.309  20.510  1.00  0.00     0.092 A 
ATOM    239  C4    T A  11     -24.412  16.228  20.665  1.00  0.00     0.250 A 
ATOM    240  N3    T A  11     -23.291  15.921  19.929  1.00  0.00    -0.275 N 
ATOM    241  O4    T A  11     -24.400  17.214  21.401  1.00  0.00    -0.268 OA
ATOM    242  H3    T A  11     -22.510  16.556  20.013  1.00  0.00     0.173 HD
ATOM    243  O2    T A  11     -22.083  14.667  18.483  1.00  0.00    -0.246 OA
BRANCH 225 244
ATOM    244  O2'   C A  12     -16.599  12.410  20.236  1.00  0.00    -0.388 OA
ATOM    245 'HO2   C A  12     -16.006  13.101  20.532  1.00  0.00     0.210 HD
ENDBRANCH 225 244
BRANCH 223 246
ATOM    246  O3'   C A  12     -17.263  10.124  21.619  1.00  0.00    -0.279 OA
BRANCH 246 247
ATOM    247  P     T A  13     -17.290   9.291  22.996  1.00  0.00     0.408 P 
ATOM    248  OP2   T A  13     -16.045   8.487  23.086  1.00  0.00    -0.624 OA
ATOM    249  OP1   T A  13     -17.628  10.243  24.083  1.00  0.00    -0.624 OA
BRANCH 247 250
ATOM    250  O5'   T A  13     -18.513   8.285  22.816  1.00  0.00    -0.287 OA
BRANCH 250 251
ATOM    251  C5'   T A  13     -19.668   8.376  23.648  1.00  0.00     0.216 C 
BRANCH 251 252
ATOM    252  C4'   T A  13     -19.322   7.999  25.070  1.00  0.00     0.180 C 
ATOM    253  O4'   T A  13     -20.058   8.861  25.983  1.00  0.00    -0.353 OA
ATOM    254  C1'   T A  13     -20.487   8.108  27.108  1.00  0.00     0.264 C 
ATOM    255  C2'   T A  13     -19.836   6.731  27.001  1.00  0.00     0.199 C 
ATOM    256  O2'   T A  13     -18.562   6.780  27.618  1.00  0.00    -0.388 OA
ATOM    257  C3'   T A  13     -19.711   6.589  25.492  1.00  0.00     0.198 C 
ATOM    258 'HO2   T A  13     -17.942   6.392  27.001  1.00  0.00     0.210 HD
ATOM    259  O3'   T A  13     -18.730   5.629  25.112  1.00  0.00    -0.279 OA
ATOM    260  P     C A  14     -19.148   4.085  24.941  1.00  0.00     0.408 P 
ATOM    261  O5'   C A  14     -19.543   3.626  26.416  1.00  0.00    -0.287 OA
ATOM    262  OP1   C A  14     -17.931   3.338  24.533  1.00  0.00    -0.624 OA
ATOM    263  OP2   C A  14     -20.366   4.020  24.094  1.00  0.00    -0.624 OA
ATOM    264  C5'   C A  14     -18.571   3.594  27.459  1.00  0.00     0.216 C 
ATOM    265  C4'   C A  14     -19.205   3.138  28.753  1.00  0.00     0.180 C 
ATOM    266  O4'   C A  14     -20.124   4.160  29.227  1.00  0.00    -0.353 OA
ATOM    267  C3'   C A  14     -20.071   1.890  28.665  1.00  0.00     0.198 C 
ATOM    268  C1'   C A  14     -21.228   3.542  29.872  1.00  0.00     0.264 C 
ATOM    269  C2'   C A  14     -20.957   2.038  29.893  1.00  0.00     0.199 C 
ATOM    270  N1    C A  14     -22.458   3.908  29.149  1.00  0.00    -0.278 N 
ATOM    271  O2'   C A  14     -20.248   1.720  31.077  1.00  0.00    -0.388 OA
ATOM    272 'HO2   C A  14     -19.508   1.172  30.813  1.00  0.00     0.210 HD
ATOM    273  C2    C A  14     -23.678   3.868  29.829  1.00  0.00     0.352 A 
ATOM    274  C6    C A  14     -22.414   4.280  27.834  1.00  0.00     0.102 A 
ATOM    275  O2    C A  14     -23.691   3.529  31.020  1.00  0.00    -0.244 OA
ATOM    276  N3    C A  14     -24.812   4.199  29.173  1.00  0.00    -0.177 NA
ATOM    277  C4    C A  14     -24.758   4.565  27.892  1.00  0.00     0.128 A 
ATOM    278  C5    C A  14     -23.529   4.617  27.173  1.00  0.00     0.067 A 
ATOM    279  N4    C A  14     -25.901   4.888  27.288  1.00  0.00    -0.384 N 
ATOM    280  H42   C A  14     -26.769   4.846  27.803  1.00  0.00     0.157 HD
ATOM    281  H41   C A  14     -25.904   5.171  26.320  1.00  0.00     0.157 HD
ATOM    282  O3'   C A  14     -19.295   0.695  28.690  1.00  0.00    -0.279 OA
ATOM    283  P     G A  15     -19.903  -0.664  28.079  1.00  0.00     0.408 P 
ATOM    284  OP1   G A  15     -18.846  -1.702  28.174  1.00  0.00    -0.624 OA
ATOM    285  OP2   G A  15     -20.512  -0.356  26.759  1.00  0.00    -0.624 OA
ATOM    286  O5'   G A  15     -21.074  -1.052  29.089  1.00  0.00    -0.287 OA
ATOM    287  C5'   G A  15     -20.794  -1.331  30.460  1.00  0.00     0.216 C 
ATOM    288  C4'   G A  15     -22.065  -1.705  31.189  1.00  0.00     0.180 C 
ATOM    289  O4'   G A  15     -22.892  -0.524  31.362  1.00  0.00    -0.353 OA
ATOM    290  C3'   G A  15     -22.988  -2.674  30.467  1.00  0.00     0.198 C 
ATOM    291  C1'   G A  15     -24.258  -0.906  31.375  1.00  0.00     0.262 C 
ATOM    292  N9    G A  15     -24.962  -0.151  30.342  1.00  0.00    -0.293 N 
ATOM    293  C2'   G A  15     -24.319  -2.421  31.165  1.00  0.00     0.199 C 
ATOM    294  C8    G A  15     -24.412   0.494  29.262  1.00  0.00     0.214 A 
ATOM    295  C4    G A  15     -26.318   0.049  30.262  1.00  0.00     0.187 A 
ATOM    296  N7    G A  15     -25.299   1.084  28.508  1.00  0.00    -0.234 NA
ATOM    297  C5    G A  15     -26.510   0.810  29.129  1.00  0.00     0.173 A 
ATOM    298  C6    G A  15     -27.833   1.182  28.773  1.00  0.00     0.292 A 
ATOM    299  N1    G A  15     -28.764   0.690  29.681  1.00  0.00    -0.153 N 
ATOM    300  O6    G A  15     -28.212   1.851  27.806  1.00  0.00    -0.265 OA
ATOM    301  H1    G A  15     -29.734   0.907  29.511  1.00  0.00     0.187 HD
ATOM    302  C2    G A  15     -28.463  -0.064  30.787  1.00  0.00     0.703 A 
ATOM    303  N3    G A  15     -27.240  -0.419  31.129  1.00  0.00    -0.044 NA
ATOM    304  N2    G A  15     -29.498  -0.445  31.540  1.00  0.00    -0.233 N 
ATOM    305  H21   G A  15     -29.331  -1.002  32.365  1.00  0.00     0.174 HD
ATOM    306  H22   G A  15     -30.440  -0.181  31.284  1.00  0.00     0.174 HD
ATOM    307  O2'   G A  15     -24.360  -3.052  32.431  1.00  0.00    -0.388 OA
ATOM    308 'HO2   G A  15     -23.690  -3.736  32.419  1.00  0.00     0.210 HD
ATOM    309  O3'   G A  15     -22.552  -4.024  30.596  1.00  0.00    -0.279 OA
ATOM    310  P     C A  16     -23.001  -5.115  29.501  1.00  0.00     0.408 P 
ATOM    311  OP2   C A  16     -22.653  -4.598  28.153  1.00  0.00    -0.624 OA
ATOM    312  O5'   C A  16     -24.590  -5.154  29.624  1.00  0.00    -0.287 OA
ATOM    313  OP1   C A  16     -22.470  -6.429  29.943  1.00  0.00    -0.624 OA
ATOM    314  C5'   C A  16     -25.221  -5.647  30.804  1.00  0.00     0.216 C 
ATOM    315  C4'   C A  16     -26.722  -5.496  30.697  1.00  0.00     0.180 C 
ATOM    316  O4'   C A  16     -27.063  -4.088  30.615  1.00  0.00    -0.353 OA
ATOM    317  C3'   C A  16     -27.362  -6.085  29.451  1.00  0.00     0.198 C 
ATOM    318  C1'   C A  16     -28.258  -3.937  29.866  1.00  0.00     0.264 C 
ATOM    319  N1    C A  16     -28.010  -2.982  28.773  1.00  0.00    -0.278 N 
ATOM    320  C2'   C A  16     -28.682  -5.323  29.378  1.00  0.00     0.199 C 
ATOM    321  C2    C A  16     -29.098  -2.325  28.194  1.00  0.00     0.352 A 
ATOM    322  C6    C A  16     -26.740  -2.739  28.325  1.00  0.00     0.102 A 
ATOM    323  N3    C A  16     -28.884  -1.449  27.188  1.00  0.00    -0.177 NA
ATOM    324  O2    C A  16     -30.238  -2.560  28.617  1.00  0.00    -0.244 OA
ATOM    325  C4    C A  16     -27.642  -1.216  26.761  1.00  0.00     0.128 A 
ATOM    326  C5    C A  16     -26.512  -1.871  27.332  1.00  0.00     0.067 A 
ATOM    327  N4    C A  16     -27.481  -0.340  25.772  1.00  0.00    -0.384 N 
ATOM    328  H41   C A  16     -26.557  -0.134  25.419  1.00  0.00     0.157 HD
ATOM    329  H42   C A  16     -28.288   0.116  25.371  1.00  0.00     0.157 HD
BRANCH 254 330
ATOM    330  N1    T A  13     -21.957   8.067  27.105  1.00  0.00    -0.280 N 
ATOM    331  C6    T A  13     -22.672   8.198  25.937  1.00  0.00     0.104 A 
ATOM    332  C5    T A  13     -24.007   8.171  25.909  1.00  0.00     0.092 A 
ATOM    333  C4    T A  13     -24.744   7.994  27.120  1.00  0.00     0.250 A 
ATOM    334  N3    T A  13     -23.968   7.865  28.248  1.00  0.00    -0.275 N 
ATOM    335  O4    T A  13     -25.969   7.952  27.222  1.00  0.00    -0.268 OA
ATOM    336  C2    T A  13     -22.600   7.891  28.317  1.00  0.00     0.331 A 
ATOM    337  H3    T A  13     -24.456   7.734  29.122  1.00  0.00     0.173 HD
ATOM    338  O2    T A  13     -22.004   7.768  29.371  1.00  0.00    -0.246 OA
ENDBRANCH 254 330
BRANCH 320 339
ATOM    339  O2'   C A  16     -29.626  -5.853  30.289  1.00  0.00    -0.388 OA
ATOM    340 'HO2   C A  16     -30.197  -5.130  30.549  1.00  0.00     0.210 HD
ENDBRANCH 320 339
BRANCH 317 341
ATOM    341  O3'   C A  16     -27.552  -7.492  29.565  1.00  0.00    -0.279 OA
BRANCH 341 342
ATOM    342  P     T A  17     -26.663  -8.493  28.672  1.00  0.00     0.408 P 
ATOM    343  OP2   T A  17     -27.564  -9.506  28.066  1.00  0.00    -0.624 OA
ATOM    344  OP1   T A  17     -25.801  -7.659  27.796  1.00  0.00    -0.624 OA
BRANCH 342 345
ATOM    345  O5'   T A  17     -25.730  -9.231  29.733  1.00  0.00    -0.287 OA
BRANCH 345 346
ATOM    346  C5'   T A  17     -24.312  -9.244  29.582  1.00  0.00     0.216 C 
BRANCH 346 347
ATOM    347  C4'   T A  17     -23.686 -10.184  30.587  1.00  0.00     0.180 C 
ATOM    348  O4'   T A  17     -22.548 -10.847  29.975  1.00  0.00    -0.353 OA
ATOM    349  C1'   T A  17     -21.547 -11.073  30.954  1.00  0.00     0.264 C 
ATOM    350  N1    T A  17     -20.310 -10.414  30.509  1.00  0.00    -0.280 N 
ATOM    351  C2'   T A  17     -22.076 -10.554  32.291  1.00  0.00     0.199 C 
ATOM    352  C2    T A  17     -19.105 -11.013  30.834  1.00  0.00     0.331 A 
ATOM    353  C6    T A  17     -20.346  -9.239  29.795  1.00  0.00     0.104 A 
ATOM    354  N3    T A  17     -17.990 -10.350  30.393  1.00  0.00    -0.275 N 
ATOM    355  O2    T A  17     -19.031 -12.052  31.465  1.00  0.00    -0.246 OA
ATOM    356  C4    T A  17     -17.954  -9.178  29.673  1.00  0.00     0.250 A 
ATOM    357  H3    T A  17     -17.096 -10.757  30.632  1.00  0.00     0.173 HD
ATOM    358  C5    T A  17     -19.237  -8.621  29.377  1.00  0.00     0.092 A 
ATOM    359  O4    T A  17     -16.866  -8.703  29.348  1.00  0.00    -0.268 OA
ATOM    360  C3'   T A  17     -23.105  -9.528  31.831  1.00  0.00     0.198 C 
ATOM    361  O2'   T A  17     -22.699 -11.624  32.977  1.00  0.00    -0.388 OA
ATOM    362 'HO2   T A  17     -23.601 -11.352  33.151  1.00  0.00     0.210 HD
BRANCH 360 363
ATOM    363  O3'   T A  17     -24.110  -9.283  32.812  1.00  0.00    -0.279 OA
BRANCH 363 364
ATOM    364  P     T A  18     -23.939  -8.062  33.844  1.00  0.00     0.408 P 
ATOM    365  OP2   T A  18     -23.303  -8.578  35.083  1.00  0.00    -0.624 OA
ATOM    366  OP1   T A  18     -23.303  -6.943  33.104  1.00  0.00    -0.624 OA
BRANCH 364 367
ATOM    367  O5'   T A  18     -25.436  -7.642  34.194  1.00  0.00    -0.287 OA
BRANCH 367 368
ATOM    368  C5'   T A  18     -25.802  -6.269  34.326  1.00  0.00     0.216 C 
ATOM    369  C4'   T A  18     -27.304  -6.138  34.422  1.00  0.00     0.180 C 
ATOM    370  C3'   T A  18     -27.978  -7.072  35.418  1.00  0.00     0.198 C 
ATOM    371  O4'   T A  18     -27.889  -6.491  33.140  1.00  0.00    -0.353 OA
ATOM    372  C2'   T A  18     -29.384  -7.209  34.847  1.00  0.00     0.199 C 
ATOM    373  O3'   T A  18     -27.977  -6.522  36.733  1.00  0.00    -0.279 OA
ATOM    374  C1'   T A  18     -29.105  -7.191  33.344  1.00  0.00     0.264 C 
ATOM    375  O2'   T A  18     -30.180  -6.085  35.175  1.00  0.00    -0.388 OA
ATOM    376  N1    T A  18     -28.971  -8.531  32.753  1.00  0.00    -0.280 N 
ATOM    377  C6    T A  18     -27.840  -9.290  32.954  1.00  0.00     0.104 A 
ATOM    378  C2    T A  18     -30.022  -9.006  31.991  1.00  0.00     0.331 A 
ATOM    379  C5    T A  18     -27.699 -10.513  32.436  1.00  0.00     0.092 A 
ATOM    380  C4    T A  18     -28.743 -11.078  31.641  1.00  0.00     0.250 A 
ATOM    381  O4    T A  18     -28.731 -12.189  31.114  1.00  0.00    -0.268 OA
ATOM    382  N3    T A  18     -29.843 -10.265  31.477  1.00  0.00    -0.275 N 
ATOM    383  H3    T A  18     -30.600 -10.635  30.922  1.00  0.00     0.173 HD
ATOM    384  O2    T A  18     -31.035  -8.364  31.785  1.00  0.00    -0.246 OA
ATOM    385 'HO2   T A  18     -29.737  -5.633  35.894  1.00  0.00     0.210 HD
ATOM    386  P     T A  19     -26.842  -6.963  37.786  1.00  0.00     0.408 P 
ATOM    387  O5'   T A  19     -27.637  -7.828  38.863  1.00  0.00    -0.287 OA
ATOM    388  OP2   T A  19     -25.864  -7.852  37.107  1.00  0.00    -0.624 OA
ATOM    389  OP1   T A  19     -26.365  -5.729  38.459  1.00  0.00    -0.624 OA
ATOM    390  C5'   T A  19     -28.402  -8.969  38.474  1.00  0.00     0.216 C 
ATOM    391  C4'   T A  19     -29.820  -8.845  38.984  1.00  0.00     0.180 C 
ATOM    392  O4'   T A  19     -29.791  -8.868  40.439  1.00  0.00    -0.353 OA
ATOM    393  C3'   T A  19     -30.538  -7.551  38.611  1.00  0.00     0.198 C 
ATOM    394  C1'   T A  19     -30.275  -7.640  40.946  1.00  0.00     0.264 C 
ATOM    395  N1    T A  19     -29.452  -7.260  42.104  1.00  0.00    -0.280 N 
ATOM    396  C2'   T A  19     -30.232  -6.641  39.794  1.00  0.00     0.199 C 
ATOM    397  C2    T A  19     -30.095  -7.029  43.306  1.00  0.00     0.331 A 
ATOM    398  C6    T A  19     -28.085  -7.138  41.997  1.00  0.00     0.104 A 
ATOM    399  O2    T A  19     -31.302  -7.127  43.441  1.00  0.00    -0.246 OA
ATOM    400  N3    T A  19     -29.274  -6.676  44.345  1.00  0.00    -0.275 N 
ATOM    401  H3    T A  19     -29.723  -6.503  45.231  1.00  0.00     0.173 HD
ATOM    402  C4    T A  19     -27.906  -6.535  44.309  1.00  0.00     0.250 A 
ATOM    403  C5    T A  19     -27.315  -6.792  43.033  1.00  0.00     0.092 A 
ATOM    404  O4    T A  19     -27.305  -6.213  45.333  1.00  0.00    -0.268 OA
ATOM    405  O2'   T A  19     -31.255  -5.682  39.983  1.00  0.00    -0.388 OA
ATOM    406 'HO2   T A  19     -32.044  -6.038  39.570  1.00  0.00     0.210 HD
ATOM    407  O3'   T A  19     -31.939  -7.760  38.448  1.00  0.00    -0.279 OA
ATOM    408  P     G A  20     -32.576  -7.804  36.973  1.00  0.00     0.408 P 
ATOM    409  O5'   G A  20     -34.045  -8.377  37.206  1.00  0.00    -0.287 OA
ATOM    410  OP1   G A  20     -31.813  -8.805  36.185  1.00  0.00    -0.624 OA
ATOM    411  OP2   G A  20     -32.692  -6.409  36.477  1.00  0.00    -0.624 OA
ATOM    412  C5'   G A  20     -34.316  -9.304  38.255  1.00  0.00     0.216 C 
ATOM    413  C4'   G A  20     -35.641  -9.990  38.016  1.00  0.00     0.180 C 
ATOM    414  C3'   G A  20     -35.719 -10.818  36.738  1.00  0.00     0.198 C 
ATOM    415  O4'   G A  20     -36.670  -8.970  37.889  1.00  0.00    -0.353 OA
ATOM    416  O3'   G A  20     -36.566 -11.954  36.904  1.00  0.00    -0.279 OA
ATOM    417  C2'   G A  20     -36.271  -9.830  35.716  1.00  0.00     0.199 C 
ATOM    418  P     G A  21     -35.988 -13.429  36.630  1.00  0.00     0.408 P 
ATOM    419  OP1   G A  21     -37.115 -14.252  36.124  1.00  0.00    -0.624 OA
ATOM    420  O5'   G A  21     -34.940 -13.225  35.446  1.00  0.00    -0.287 OA
ATOM    421  OP2   G A  21     -35.246 -13.868  37.840  1.00  0.00    -0.624 OA
ATOM    422  C5'   G A  21     -35.363 -12.788  34.156  1.00  0.00     0.216 C 
ATOM    423  C4'   G A  21     -34.989 -13.810  33.107  1.00  0.00     0.180 C 
ATOM    424  C3'   G A  21     -36.027 -14.003  32.003  1.00  0.00     0.198 C 
ATOM    425  O4'   G A  21     -34.845 -15.111  33.746  1.00  0.00    -0.353 OA
ATOM    426  C2'   G A  21     -36.801 -15.234  32.464  1.00  0.00     0.199 C 
ATOM    427  O3'   G A  21     -35.412 -14.208  30.733  1.00  0.00    -0.279 OA
ATOM    428  C1'   G A  21     -35.684 -16.048  33.107  1.00  0.00     0.262 C 
ATOM    429  O2'   G A  21     -37.317 -15.957  31.362  1.00  0.00    -0.388 OA
ATOM    430  N9    G A  21     -36.125 -17.024  34.099  1.00  0.00    -0.293 N 
ATOM    431  C8    G A  21     -37.251 -16.965  34.884  1.00  0.00     0.214 A 
ATOM    432  C4    G A  21     -35.485 -18.194  34.431  1.00  0.00     0.187 A 
ATOM    433  N7    G A  21     -37.380 -17.991  35.680  1.00  0.00    -0.234 NA
ATOM    434  C5    G A  21     -36.268 -18.777  35.405  1.00  0.00     0.173 A 
ATOM    435  C6    G A  21     -35.859 -20.020  35.956  1.00  0.00     0.292 A 
ATOM    436  O6    G A  21     -36.414 -20.699  36.828  1.00  0.00    -0.265 OA
ATOM    437  N1    G A  21     -34.670 -20.463  35.390  1.00  0.00    -0.153 N 
ATOM    438  H1    G A  21     -34.304 -21.341  35.723  1.00  0.00     0.187 HD
ATOM    439  C2    G A  21     -33.965 -19.801  34.419  1.00  0.00     0.703 A 
ATOM    440  N2    G A  21     -32.841 -20.390  34.000  1.00  0.00    -0.233 N 
ATOM    441  N3    G A  21     -34.331 -18.645  33.896  1.00  0.00    -0.044 NA
ATOM    442  H22   G A  21     -32.546 -21.272  34.390  1.00  0.00     0.174 HD
ATOM    443  H21   G A  21     -32.288 -19.938  33.287  1.00  0.00     0.174 HD
ATOM    444 'HO2   G A  21     -36.867 -15.623  30.585  1.00  0.00     0.210 HD
ATOM    445  P     G A  22     -34.977 -12.941  29.840  1.00  0.00     0.408 P 
ATOM    446  OP1   G A  22     -35.041 -13.366  28.417  1.00  0.00    -0.624 OA
ATOM    447  O5'   G A  22     -36.132 -11.871  30.089  1.00  0.00    -0.287 OA
ATOM    448  OP2   G A  22     -33.709 -12.394  30.384  1.00  0.00    -0.624 OA
ATOM    449  C5'   G A  22     -37.464 -12.102  29.631  1.00  0.00     0.216 C 
ATOM    450  C4'   G A  22     -38.333 -10.904  29.936  1.00  0.00     0.180 C 
ATOM    451  O4'   G A  22     -38.194 -10.574  31.346  1.00  0.00    -0.353 OA
ATOM    452  C3'   G A  22     -37.962  -9.628  29.191  1.00  0.00     0.198 C 
ATOM    453  C1'   G A  22     -38.073  -9.173  31.502  1.00  0.00     0.262 C 
ATOM    454  C2'   G A  22     -38.404  -8.534  30.154  1.00  0.00     0.199 C 
ATOM    455  N9    G A  22     -36.724  -8.877  31.976  1.00  0.00    -0.293 N 
ATOM    456  O2'   G A  22     -39.802  -8.324  30.081  1.00  0.00    -0.388 OA
ATOM    457 'HO2   G A  22     -40.087  -8.681  29.239  1.00  0.00     0.210 HD
ATOM    458  C8    G A  22     -35.705  -9.773  32.188  1.00  0.00     0.214 A 
ATOM    459  C4    G A  22     -36.223  -7.639  32.299  1.00  0.00     0.187 A 
ATOM    460  N7    G A  22     -34.607  -9.213  32.617  1.00  0.00    -0.234 NA
ATOM    461  C5    G A  22     -34.921  -7.862  32.693  1.00  0.00     0.173 A 
ATOM    462  C6    G A  22     -34.129  -6.755  33.095  1.00  0.00     0.292 A 
ATOM    463  O6    G A  22     -32.954  -6.745  33.477  1.00  0.00    -0.265 OA
ATOM    464  N1    G A  22     -34.840  -5.564  33.018  1.00  0.00    -0.153 N 
ATOM    465  C2    G A  22     -36.144  -5.450  32.609  1.00  0.00     0.703 A 
ATOM    466  H1    G A  22     -34.355  -4.723  33.286  1.00  0.00     0.187 HD
ATOM    467  N3    G A  22     -36.894  -6.470  32.235  1.00  0.00    -0.044 NA
ATOM    468  N2    G A  22     -36.653  -4.215  32.603  1.00  0.00    -0.233 N 
ATOM    469  H21   G A  22     -37.608  -4.077  32.309  1.00  0.00     0.174 HD
ATOM    470  H22   G A  22     -36.089  -3.429  32.890  1.00  0.00     0.174 HD
ATOM    471  O3'   G A  22     -38.631  -9.549  27.934  1.00  0.00    -0.279 OA
ATOM    472  P     T A  23     -37.840  -9.017  26.640  1.00  0.00     0.408 P 
ATOM    473  O5'   T A  23     -37.326  -7.571  27.069  1.00  0.00    -0.287 OA
ATOM    474  OP2   T A  23     -36.655  -9.885  26.423  1.00  0.00    -0.624 OA
ATOM    475  OP1   T A  23     -38.836  -8.848  25.552  1.00  0.00    -0.624 OA
ATOM    476  C5'   T A  23     -38.246  -6.534  27.407  1.00  0.00     0.216 C 
ATOM    477  C4'   T A  23     -37.500  -5.325  27.920  1.00  0.00     0.180 C 
ATOM    478  C3'   T A  23     -36.406  -4.798  27.002  1.00  0.00     0.198 C 
ATOM    479  O4'   T A  23     -36.807  -5.684  29.147  1.00  0.00    -0.353 OA
ATOM    480  O3'   T A  23     -36.930  -3.896  26.031  1.00  0.00    -0.279 OA
ATOM    481  C2'   T A  23     -35.454  -4.121  27.978  1.00  0.00     0.199 C 
ATOM    482  P     G A  24     -36.543  -4.076  24.480  1.00  0.00     0.408 P 
ATOM    483  OP2   G A  24     -36.541  -5.527  24.157  1.00  0.00    -0.624 OA
ATOM    484  OP1   G A  24     -37.406  -3.153  23.701  1.00  0.00    -0.624 OA
ATOM    485  O5'   G A  24     -35.044  -3.544  24.395  1.00  0.00    -0.287 OA
ATOM    486  C5'   G A  24     -34.690  -2.261  24.907  1.00  0.00     0.216 C 
ATOM    487  C4'   G A  24     -33.189  -2.140  25.023  1.00  0.00     0.180 C 
ATOM    488  O4'   G A  24     -32.727  -2.975  26.120  1.00  0.00    -0.353 OA
ATOM    489  C3'   G A  24     -32.393  -2.633  23.825  1.00  0.00     0.198 C 
ATOM    490  C1'   G A  24     -31.460  -3.523  25.797  1.00  0.00     0.262 C 
ATOM    491  C2'   G A  24     -31.038  -2.946  24.445  1.00  0.00     0.199 C 
ATOM    492  N9    G A  24     -31.571  -4.979  25.800  1.00  0.00    -0.293 N 
ATOM    493  O2'   G A  24     -30.293  -1.764  24.668  1.00  0.00    -0.388 OA
ATOM    494 'HO2   G A  24     -30.684  -1.083  24.120  1.00  0.00     0.210 HD
ATOM    495  C4    G A  24     -30.534  -5.878  25.749  1.00  0.00     0.187 A 
ATOM    496  C8    G A  24     -32.724  -5.723  25.854  1.00  0.00     0.214 A 
ATOM    497  C5    G A  24     -31.126  -7.124  25.778  1.00  0.00     0.173 A 
ATOM    498  N3    G A  24     -29.221  -5.571  25.686  1.00  0.00    -0.044 NA
ATOM    499  C6    G A  24     -30.296  -8.276  25.738  1.00  0.00     0.292 A 
ATOM    500  N7    G A  24     -32.509  -7.010  25.844  1.00  0.00    -0.234 NA
ATOM    501  O6    G A  24     -30.626  -9.467  25.756  1.00  0.00    -0.265 OA
ATOM    502  N1    G A  24     -28.951  -7.934  25.672  1.00  0.00    -0.153 N 
ATOM    503  H1    G A  24     -28.283  -8.689  25.639  1.00  0.00     0.187 HD
ATOM    504  C2    G A  24     -28.463  -6.652  25.648  1.00  0.00     0.703 A 
ATOM    505  N2    G A  24     -27.136  -6.528  25.582  1.00  0.00    -0.233 N 
ATOM    506  H22   G A  24     -26.547  -7.349  25.553  1.00  0.00     0.174 HD
ATOM    507  H21   G A  24     -26.725  -5.607  25.561  1.00  0.00     0.174 HD
ATOM    508  O3'   G A  24     -32.313  -1.643  22.803  1.00  0.00    -0.279 OA
ATOM    509  P     C A  25     -32.138  -2.090  21.268  1.00  0.00     0.408 P 
ATOM    510  OP2   C A  25     -33.091  -3.193  20.985  1.00  0.00    -0.624 OA
ATOM    511  OP1   C A  25     -32.180  -0.856  20.443  1.00  0.00    -0.624 OA
ATOM    512  O5'   C A  25     -30.661  -2.682  21.204  1.00  0.00    -0.287 OA
ATOM    513  C5'   C A  25     -29.531  -1.868  21.515  1.00  0.00     0.216 C 
ATOM    514  C1'   T A  23     -35.528  -5.072  29.171  1.00  0.00     0.264 C 
ATOM    515  O2'   T A  23     -35.944  -2.853  28.376  1.00  0.00    -0.388 OA
ATOM    516  N1    T A  23     -34.508  -6.131  29.148  1.00  0.00    -0.280 N 
ATOM    517  C6    T A  23     -34.652  -7.245  28.351  1.00  0.00     0.104 A 
ATOM    518  C2    T A  23     -33.392  -5.968  29.950  1.00  0.00     0.331 A 
ATOM    519  C5    T A  23     -33.732  -8.212  28.303  1.00  0.00     0.092 A 
ATOM    520  C4    T A  23     -32.546  -8.114  29.096  1.00  0.00     0.250 A 
ATOM    521  O4    T A  23     -31.612  -8.916  29.104  1.00  0.00    -0.268 OA
ATOM    522  N3    T A  23     -32.472  -6.981  29.875  1.00  0.00    -0.275 N 
ATOM    523  H3    T A  23     -31.658  -6.895  30.465  1.00  0.00     0.173 HD
ATOM    524  O2    T A  23     -33.233  -5.001  30.673  1.00  0.00    -0.246 OA
ATOM    525 'HO2   T A  23     -36.532  -2.556  27.681  1.00  0.00     0.210 HD
ATOM    526  C1'   G A  20     -37.206  -8.989  36.581  1.00  0.00     0.262 C 
ATOM    527  O2'   G A  20     -37.045 -10.490  34.732  1.00  0.00    -0.388 OA
ATOM    528  N9    G A  20     -37.345  -7.610  36.123  1.00  0.00    -0.293 N 
ATOM    529  C8    G A  20     -36.344  -6.682  35.976  1.00  0.00     0.214 A 
ATOM    530  C4    G A  20     -38.510  -6.985  35.751  1.00  0.00     0.187 A 
ATOM    531  N7    G A  20     -36.771  -5.528  35.542  1.00  0.00    -0.234 NA
ATOM    532  C5    G A  20     -38.140  -5.705  35.394  1.00  0.00     0.173 A 
ATOM    533  C6    G A  20     -39.142  -4.803  34.954  1.00  0.00     0.292 A 
ATOM    534  N1    G A  20     -40.401  -5.394  34.958  1.00  0.00    -0.153 N 
ATOM    535  O6    G A  20     -39.019  -3.627  34.591  1.00  0.00    -0.265 OA
ATOM    536  H1    G A  20     -41.178  -4.826  34.659  1.00  0.00     0.187 HD
ATOM    537  C2    G A  20     -40.662  -6.686  35.337  1.00  0.00     0.703 A 
ATOM    538  N3    G A  20     -39.741  -7.538  35.747  1.00  0.00    -0.044 NA
ATOM    539  N2    G A  20     -41.940  -7.072  35.275  1.00  0.00    -0.233 N 
ATOM    540  H21   G A  20     -42.180  -8.015  35.544  1.00  0.00     0.174 HD
ATOM    541  H22   G A  20     -42.655  -6.433  34.963  1.00  0.00     0.174 HD
ATOM    542 'HO2   G A  20     -37.432 -11.259  35.152  1.00  0.00     0.210 HD
BRANCH 513 543
ATOM    543  C4'   C A  25     -28.252  -2.653  21.333  1.00  0.00     0.180 C 
ATOM    544  C3'   C A  25     -27.273  -2.098  20.308  1.00  0.00     0.198 C 
ATOM    545  C2'   C A  25     -26.469  -3.337  19.939  1.00  0.00     0.199 C 
ATOM    546  C1'   C A  25     -27.571  -4.394  19.912  1.00  0.00     0.264 C 
ATOM    547  O4'   C A  25     -28.573  -3.979  20.827  1.00  0.00    -0.353 OA
BRANCH 544 548
ATOM    548  O3'   C A  25     -26.459  -1.061  20.849  1.00  0.00    -0.279 OA
BRANCH 548 549
ATOM    549  P     G A  26     -26.452  -0.800  22.436  1.00  0.00     0.408 P 
ATOM    550  OP2   G A  26     -27.402   0.300  22.739  1.00  0.00    -0.624 OA
ATOM    551  OP1   G A  26     -26.622  -2.119  23.099  1.00  0.00    -0.624 OA
BRANCH 549 552
ATOM    552  O5'   G A  26     -24.975  -0.281  22.736  1.00  0.00    -0.287 OA
BRANCH 552 553
ATOM    553  C5'   G A  26     -24.730   0.679  23.763  1.00  0.00     0.216 C 
ATOM    554  C4'   G A  26     -23.871   1.806  23.238  1.00  0.00     0.180 C 
ATOM    555  C3'   G A  26     -24.373   2.506  21.985  1.00  0.00     0.198 C 
ATOM    556  O4'   G A  26     -22.579   1.286  22.825  1.00  0.00    -0.353 OA
ATOM    557  C2'   G A  26     -23.104   3.169  21.467  1.00  0.00     0.199 C 
ATOM    558  O3'   G A  26     -25.403   3.449  22.269  1.00  0.00    -0.279 OA
ATOM    559  O2'   G A  26     -22.793   4.331  22.213  1.00  0.00    -0.388 OA
ATOM    560  C1'   G A  26     -22.061   2.094  21.780  1.00  0.00     0.262 C 
ATOM    561 'HO2   G A  26     -23.611   4.630  22.609  1.00  0.00     0.210 HD
ATOM    562  N9    G A  26     -21.752   1.240  20.638  1.00  0.00    -0.293 N 
ATOM    563  C4    G A  26     -20.954   1.568  19.569  1.00  0.00     0.187 A 
ATOM    564  C8    G A  26     -22.195  -0.040  20.411  1.00  0.00     0.214 A 
ATOM    565  N3    G A  26     -20.315   2.743  19.388  1.00  0.00    -0.044 NA
ATOM    566  C5    G A  26     -20.961   0.458  18.751  1.00  0.00     0.173 A 
ATOM    567  C2    G A  26     -19.624   2.761  18.263  1.00  0.00     0.703 A 
ATOM    568  N2    G A  26     -18.930   3.851  17.930  1.00  0.00    -0.233 N 
ATOM    569  N1    G A  26     -19.564   1.711  17.381  1.00  0.00    -0.153 N 
ATOM    570  H21   G A  26     -18.942   4.651  18.544  1.00  0.00     0.174 HD
ATOM    571  H22   G A  26     -18.397   3.878  17.071  1.00  0.00     0.174 HD
ATOM    572  H1    G A  26     -19.005   1.831  16.550  1.00  0.00     0.187 HD
ATOM    573  C6    G A  26     -20.215   0.493  17.545  1.00  0.00     0.292 A 
ATOM    574  O6    G A  26     -20.095  -0.387  16.686  1.00  0.00    -0.265 OA
ATOM    575  N7    G A  26     -21.746  -0.550  19.297  1.00  0.00    -0.234 NA
ATOM    576  P     A A  27     -26.377   3.948  21.090  1.00  0.00     0.408 P 
ATOM    577  O5'   A A  27     -25.406   4.705  20.078  1.00  0.00    -0.287 OA
ATOM    578  OP2   A A  27     -26.929   2.754  20.400  1.00  0.00    -0.624 OA
ATOM    579  OP1   A A  27     -27.303   4.947  21.680  1.00  0.00    -0.624 OA
ATOM    580  C5'   A A  27     -24.801   5.947  20.435  1.00  0.00     0.216 C 
ATOM    581  C4'   A A  27     -24.001   6.496  19.274  1.00  0.00     0.180 C 
ATOM    582  C3'   A A  27     -24.713   6.539  17.931  1.00  0.00     0.198 C 
ATOM    583  O4'   A A  27     -22.862   5.632  19.017  1.00  0.00    -0.353 OA
ATOM    584  O3'   A A  27     -25.585   7.661  17.820  1.00  0.00    -0.279 OA
ATOM    585  C2'   A A  27     -23.543   6.613  16.958  1.00  0.00     0.199 C 
ATOM    586  P     G A  28     -26.762   7.651  16.724  1.00  0.00     0.408 P 
ATOM    587  OP2   G A  28     -27.536   6.394  16.877  1.00  0.00    -0.624 OA
ATOM    588  OP1   G A  28     -27.461   8.959  16.815  1.00  0.00    -0.624 OA
ATOM    589  O5'   G A  28     -25.991   7.597  15.329  1.00  0.00    -0.287 OA
ATOM    590  C5'   G A  28     -25.489   8.785  14.721  1.00  0.00     0.216 C 
ATOM    591  C4'   G A  28     -24.516   8.443  13.614  1.00  0.00     0.180 C 
ATOM    592  C3'   G A  28     -25.132   8.053  12.281  1.00  0.00     0.198 C 
ATOM    593  O4'   G A  28     -23.752   7.265  13.975  1.00  0.00    -0.353 OA
ATOM    594  C2'   G A  28     -23.986   7.308  11.603  1.00  0.00     0.199 C 
ATOM    595  C1'   G A  28     -23.337   6.598  12.794  1.00  0.00     0.262 C 
ATOM    596  N9    G A  28     -23.701   5.188  12.903  1.00  0.00    -0.293 N 
ATOM    597  C8    G A  28     -24.434   4.590  13.898  1.00  0.00     0.214 A 
ATOM    598  C4    G A  28     -23.371   4.191  12.014  1.00  0.00     0.187 A 
ATOM    599  N7    G A  28     -24.591   3.306  13.723  1.00  0.00    -0.234 NA
ATOM    600  C5    G A  28     -23.924   3.040  12.534  1.00  0.00     0.173 A 
ATOM    601  C6    G A  28     -23.749   1.820  11.829  1.00  0.00     0.292 A 
ATOM    602  O6    G A  28     -24.158   0.692  12.124  1.00  0.00    -0.265 OA
ATOM    603  N1    G A  28     -23.008   2.003  10.666  1.00  0.00    -0.153 N 
ATOM    604  C2    G A  28     -22.501   3.202  10.237  1.00  0.00     0.703 A 
ATOM    605  H1    G A  28     -22.833   1.189  10.098  1.00  0.00     0.187 HD
ATOM    606  N3    G A  28     -22.653   4.345  10.882  1.00  0.00    -0.044 NA
ATOM    607  O2'   A A  27     -22.997   7.919  16.914  1.00  0.00    -0.388 OA
ATOM    608  C1'   A A  27     -22.534   5.685  17.637  1.00  0.00     0.262 C 
ATOM    609 'HO2   A A  27     -23.732   8.520  16.795  1.00  0.00     0.210 HD
ATOM    610  N9    A A  27     -22.547   4.323  17.103  1.00  0.00    -0.294 N 
ATOM    611  C4    A A  27     -21.937   3.904  15.946  1.00  0.00     0.167 A 
ATOM    612  C8    A A  27     -23.158   3.212  17.628  1.00  0.00     0.214 A 
ATOM    613  N3    A A  27     -21.216   4.647  15.089  1.00  0.00    -0.222 NA
ATOM    614  C5    A A  27     -22.216   2.553  15.841  1.00  0.00     0.149 A 
ATOM    615  C2    A A  27     -20.778   3.904  14.077  1.00  0.00     0.237 A 
ATOM    616  N1    A A  27     -20.964   2.598  13.842  1.00  0.00    -0.222 NA
ATOM    617  C6    A A  27     -21.693   1.879  14.723  1.00  0.00     0.155 A 
ATOM    618  N6    A A  27     -21.876   0.581  14.488  1.00  0.00    -0.382 N 
ATOM    619  H62   A A  27     -21.479   0.151  13.664  1.00  0.00     0.157 HD
ATOM    620  H61   A A  27     -22.419   0.026  15.135  1.00  0.00     0.157 HD
ATOM    621  N7    A A  27     -22.988   2.127  16.912  1.00  0.00    -0.236 NA
BRANCH 592 622
ATOM    622  O3'   G A  28     -25.556   9.194  11.539  1.00  0.00    -0.279 OA
BRANCH 622 623
ATOM    623  P     A A  29     -27.106   9.360  11.141  1.00  0.00     0.408 P 
ATOM    624  OP2   A A  29     -27.321   8.729   9.813  1.00  0.00    -0.624 OA
ATOM    625  OP1   A A  29     -27.910   8.908  12.305  1.00  0.00    -0.624 OA
BRANCH 623 626
ATOM    626  O5'   A A  29     -27.299  10.935  10.985  1.00  0.00    -0.287 OA
BRANCH 626 627
ATOM    627  C5'   A A  29     -26.273  11.842  11.384  1.00  0.00     0.216 C 
BRANCH 627 628
ATOM    628  C4'   A A  29     -26.262  11.990  12.889  1.00  0.00     0.180 C 
ATOM    629  C3'   A A  29     -26.782  13.315  13.429  1.00  0.00     0.198 C 
ATOM    630  O3'   A A  29     -28.204  13.333  13.510  1.00  0.00    -0.279 OA
ATOM    631  C2'   A A  29     -26.120  13.387  14.800  1.00  0.00     0.199 C 
ATOM    632  P     G A  30     -28.984  14.739  13.572  1.00  0.00     0.408 P 
ATOM    633  OP1   G A  30     -30.436  14.435  13.644  1.00  0.00    -0.624 OA
ATOM    634  O5'   G A  30     -28.540  15.368  14.968  1.00  0.00    -0.287 OA
ATOM    635  OP2   G A  30     -28.470  15.608  12.483  1.00  0.00    -0.624 OA
ATOM    636  C5'   G A  30     -28.875  14.731  16.201  1.00  0.00     0.216 C 
ATOM    637  C4'   G A  30     -28.577  15.649  17.363  1.00  0.00     0.180 C 
ATOM    638  C3'   G A  30     -29.280  17.007  17.317  1.00  0.00     0.198 C 
ATOM    639  O4'   G A  30     -27.150  15.939  17.372  1.00  0.00    -0.353 OA
ATOM    640  O3'   G A  30     -29.751  17.393  18.607  1.00  0.00    -0.279 OA
ATOM    641  C2'   G A  30     -28.197  17.949  16.798  1.00  0.00     0.199 C 
ATOM    642  P     G A  31     -31.114  16.761  19.186  1.00  0.00     0.408 P 
ATOM    643  OP1   G A  31     -31.858  16.166  18.046  1.00  0.00    -0.624 OA
ATOM    644  OP2   G A  31     -31.772  17.791  20.031  1.00  0.00    -0.624 OA
ATOM    645  O5'   G A  31     -30.623  15.571  20.127  1.00  0.00    -0.287 OA
ATOM    646  C5'   G A  31     -30.296  15.794  21.498  1.00  0.00     0.216 C 
ATOM    647  C4'   G A  31     -30.906  14.714  22.361  1.00  0.00     0.180 C 
ATOM    648  C3'   G A  31     -30.894  14.987  23.860  1.00  0.00     0.198 C 
ATOM    649  O4'   G A  31     -30.131  13.494  22.208  1.00  0.00    -0.353 OA
ATOM    650  O3'   G A  31     -32.019  15.761  24.265  1.00  0.00    -0.279 OA
ATOM    651  C2'   G A  31     -30.914  13.582  24.448  1.00  0.00     0.199 C 
ATOM    652  P     G A  32     -31.974  16.568  25.657  1.00  0.00     0.408 P 
ATOM    653  OP1   G A  32     -33.293  17.228  25.827  1.00  0.00    -0.624 OA
ATOM    654  O5'   G A  32     -31.844  15.427  26.762  1.00  0.00    -0.287 OA
ATOM    655  OP2   G A  32     -30.736  17.387  25.682  1.00  0.00    -0.624 OA
ATOM    656  C5'   G A  32     -32.900  14.495  26.986  1.00  0.00     0.216 C 
ATOM    657  C4'   G A  32     -32.768  13.873  28.358  1.00  0.00     0.180 C 
ATOM    658  C3'   G A  32     -32.226  14.790  29.444  1.00  0.00     0.198 C 
ATOM    659  O4'   G A  32     -31.804  12.790  28.296  1.00  0.00    -0.353 OA
ATOM    660  C2'   G A  32     -31.638  13.804  30.446  1.00  0.00     0.199 C 
ATOM    661  O3'   G A  32     -33.260  15.596  30.006  1.00  0.00    -0.279 OA
ATOM    662  O2'   G A  32     -32.646  13.230  31.259  1.00  0.00    -0.388 OA
ATOM    663  C1'   G A  32     -31.089  12.719  29.517  1.00  0.00     0.262 C 
ATOM    664 'HO2   G A  32     -32.817  13.848  31.970  1.00  0.00     0.210 HD
ATOM    665  N9    G A  32     -29.666  12.862  29.225  1.00  0.00    -0.293 N 
ATOM    666  C4    G A  32     -28.623  12.402  29.993  1.00  0.00     0.187 A 
ATOM    667  C8    G A  32     -29.100  13.475  28.134  1.00  0.00     0.214 A 
ATOM    668  N3    G A  32     -28.733  11.736  31.162  1.00  0.00    -0.044 NA
ATOM    669  C5    G A  32     -27.480  12.765  29.313  1.00  0.00     0.173 A 
ATOM    670  C2    G A  32     -27.551  11.425  31.664  1.00  0.00     0.703 A 
ATOM    671  N2    G A  32     -27.478  10.766  32.823  1.00  0.00    -0.233 N 
ATOM    672  N1    G A  32     -26.357  11.738  31.068  1.00  0.00    -0.153 N 
ATOM    673  H21   G A  32     -28.330  10.513  33.301  1.00  0.00     0.174 HD
ATOM    674  H22   G A  32     -26.583  10.523  33.220  1.00  0.00     0.174 HD
ATOM    675  C6    G A  32     -26.219  12.420  29.866  1.00  0.00     0.292 A 
ATOM    676  H1    G A  32     -25.508  11.453  31.534  1.00  0.00     0.187 HD
ATOM    677  O6    G A  32     -25.091  12.648  29.416  1.00  0.00    -0.265 OA
ATOM    678  N7    G A  32     -27.796  13.442  28.143  1.00  0.00    -0.234 NA
ATOM    679  P     T A  33     -32.880  16.819  30.978  1.00  0.00     0.408 P 
ATOM    680  OP1   T A  33     -34.097  17.658  31.126  1.00  0.00    -0.624 OA
ATOM    681  O5'   T A  33     -32.591  16.120  32.381  1.00  0.00    -0.287 OA
ATOM    682  OP2   T A  33     -31.620  17.437  30.490  1.00  0.00    -0.624 OA
ATOM    683  C5'   T A  33     -31.396  16.393  33.110  1.00  0.00     0.216 C 
ATOM    684  C4'   T A  33     -31.154  15.311  34.134  1.00  0.00     0.180 C 
ATOM    685  C3'   T A  33     -30.254  15.707  35.298  1.00  0.00     0.198 C 
ATOM    686  O4'   T A  33     -30.469  14.202  33.489  1.00  0.00    -0.353 OA
ATOM    687  O3'   T A  33     -31.001  16.297  36.360  1.00  0.00    -0.279 OA
ATOM    688  C2'   T A  33     -29.626  14.378  35.697  1.00  0.00     0.199 C 
ATOM    689  P     T A  34     -30.698  17.812  36.808  1.00  0.00     0.408 P 
ATOM    690  OP1   T A  34     -31.949  18.357  37.394  1.00  0.00    -0.624 OA
ATOM    691  O5'   T A  34     -29.628  17.660  37.980  1.00  0.00    -0.287 OA
ATOM    692  OP2   T A  34     -30.048  18.524  35.678  1.00  0.00    -0.624 OA
ATOM    693  C5'   T A  34     -29.967  17.014  39.205  1.00  0.00     0.216 C 
ATOM    694  C4'   T A  34     -28.757  16.312  39.777  1.00  0.00     0.180 C 
ATOM    695  O4'   T A  34     -28.214  15.413  38.771  1.00  0.00    -0.353 OA
ATOM    696  C3'   T A  34     -27.592  17.219  40.152  1.00  0.00     0.198 C 
ATOM    697  C1'   T A  34     -26.798  15.445  38.814  1.00  0.00     0.264 C 
ATOM    698  C2'   T A  34     -26.394  16.286  40.025  1.00  0.00     0.199 C 
ATOM    699  N1    T A  34     -26.308  15.979  37.534  1.00  0.00    -0.280 N 
ATOM    700  C6    T A  34     -27.141  16.665  36.681  1.00  0.00     0.104 A 
ATOM    701  C2    T A  34     -24.978  15.769  37.216  1.00  0.00     0.331 A 
ATOM    702  C5    T A  34     -26.719  17.159  35.513  1.00  0.00     0.092 A 
ATOM    703  C4    T A  34     -25.358  16.985  35.114  1.00  0.00     0.250 A 
ATOM    704  O4    T A  34     -24.854  17.396  34.070  1.00  0.00    -0.268 OA
ATOM    705  N3    T A  34     -24.581  16.292  36.012  1.00  0.00    -0.275 N 
ATOM    706  H3    T A  34     -23.614  16.156  35.763  1.00  0.00     0.173 HD
ATOM    707  O2    T A  34     -24.209  15.168  37.944  1.00  0.00    -0.246 OA
ATOM    708  C1'   T A  33     -29.433  13.724  34.330  1.00  0.00     0.264 C 
ATOM    709  O2'   T A  33     -30.526  13.592  36.455  1.00  0.00    -0.388 OA
ATOM    710  N1    T A  33     -28.142  14.034  33.697  1.00  0.00    -0.280 N 
ATOM    711  C6    T A  33     -28.075  14.727  32.508  1.00  0.00     0.104 A 
ATOM    712  C2    T A  33     -26.992  13.609  34.338  1.00  0.00     0.331 A 
ATOM    713  C5    T A  33     -26.913  15.022  31.917  1.00  0.00     0.092 A 
ATOM    714  C4    T A  33     -25.682  14.617  32.518  1.00  0.00     0.250 A 
ATOM    715  O4    T A  33     -24.556  14.820  32.068  1.00  0.00    -0.268 OA
ATOM    716  N3    T A  33     -25.822  13.932  33.702  1.00  0.00    -0.275 N 
ATOM    717  H3    T A  33     -24.970  13.639  34.157  1.00  0.00     0.173 HD
ATOM    718  O2    T A  33     -27.008  12.993  35.387  1.00  0.00    -0.246 OA
ATOM    719 'HO2   T A  33     -31.005  14.194  37.024  1.00  0.00     0.210 HD
ATOM    720  C1'   G A  31     -30.022  12.835  23.459  1.00  0.00     0.262 C 
ATOM    721  O2'   G A  31     -32.215  13.027  24.397  1.00  0.00    -0.388 OA
ATOM    722  N9    G A  31     -28.614  12.808  23.844  1.00  0.00    -0.293 N 
ATOM    723  C4    G A  31     -28.066  12.109  24.894  1.00  0.00     0.187 A 
ATOM    724  C8    G A  31     -27.575  13.474  23.240  1.00  0.00     0.214 A 
ATOM    725  N3    G A  31     -28.738  11.317  25.755  1.00  0.00    -0.044 NA
ATOM    726  C5    G A  31     -26.718  12.396  24.861  1.00  0.00     0.173 A 
ATOM    727  C2    G A  31     -27.937  10.780  26.658  1.00  0.00     0.703 A 
ATOM    728  N2    G A  31     -28.442   9.970  27.593  1.00  0.00    -0.233 N 
ATOM    729  N1    G A  31     -26.585  10.999  26.712  1.00  0.00    -0.153 N 
ATOM    730  H21   G A  31     -29.433   9.779  27.593  1.00  0.00     0.174 HD
ATOM    731  H22   G A  31     -27.842   9.554  28.289  1.00  0.00     0.174 HD
ATOM    732  C6    G A  31     -25.871  11.809  25.837  1.00  0.00     0.292 A 
ATOM    733  H1    G A  31     -26.059  10.544  27.442  1.00  0.00     0.187 HD
ATOM    734  O6    G A  31     -24.649  11.935  25.975  1.00  0.00    -0.265 OA
ATOM    735  N7    G A  31     -26.423  13.258  23.813  1.00  0.00    -0.234 NA
ATOM    736 'HO2   G A  31     -32.823  13.762  24.317  1.00  0.00     0.210 HD
ATOM    737  O2'   G A  30     -28.369  19.258  17.309  1.00  0.00    -0.388 OA
ATOM    738  C1'   G A  30     -26.955  17.333  17.429  1.00  0.00     0.262 C 
ATOM    739 'HO2   G A  30     -28.847  19.170  18.134  1.00  0.00     0.210 HD
ATOM    740  N9    G A  30     -25.704  17.656  16.749  1.00  0.00    -0.293 N 
ATOM    741  C8    G A  30     -25.362  17.359  15.452  1.00  0.00     0.214 A 
ATOM    742  C4    G A  30     -24.632  18.323  17.288  1.00  0.00     0.187 A 
ATOM    743  N7    G A  30     -24.171  17.782  15.125  1.00  0.00    -0.234 NA
ATOM    744  C5    G A  30     -23.698  18.393  16.278  1.00  0.00     0.173 A 
ATOM    745  C6    G A  30     -22.460  19.040  16.536  1.00  0.00     0.292 A 
ATOM    746  N1    G A  30     -22.396  19.519  17.839  1.00  0.00    -0.153 N 
ATOM    747  O6    G A  30     -21.503  19.207  15.773  1.00  0.00    -0.265 OA
ATOM    748  C2    G A  30     -23.391  19.394  18.774  1.00  0.00     0.703 A 
ATOM    749  H1    G A  30     -21.550  19.995  18.113  1.00  0.00     0.187 HD
ATOM    750  N2    G A  30     -23.140  19.920  19.976  1.00  0.00    -0.233 N 
ATOM    751  N3    G A  30     -24.546  18.797  18.549  1.00  0.00    -0.044 NA
ATOM    752  H21   G A  30     -23.843  19.853  20.698  1.00  0.00     0.174 HD
ATOM    753  H22   G A  30     -22.261  20.377  20.164  1.00  0.00     0.174 HD
ATOM    754  O2'   A A  29     -26.798  12.570  15.737  1.00  0.00    -0.388 OA
ATOM    755  C1'   A A  29     -24.754  12.763  14.509  1.00  0.00     0.262 C 
ATOM    756 'HO2   A A  29     -27.654  12.366  15.356  1.00  0.00     0.210 HD
ATOM    757  O4'   A A  29     -24.891  11.937  13.365  1.00  0.00    -0.353 OA
BRANCH 698 758
ATOM    758  O2'   T A  34     -26.284  15.436  41.152  1.00  0.00    -0.388 OA
ATOM    759 'HO2   T A  34     -26.158  16.002  41.915  1.00  0.00     0.210 HD
ENDBRANCH 698 758
BRANCH 696 760
ATOM    760  O3'   T A  34     -27.740  17.739  41.472  1.00  0.00    -0.279 OA
BRANCH 760 761
ATOM    761  P     C A  35     -28.779  17.056  42.495  1.00  0.00     0.408 P 
ATOM    762  OP1   C A  35     -30.113  17.654  42.228  1.00  0.00    -0.624 OA
ATOM    763  OP2   C A  35     -28.217  17.103  43.869  1.00  0.00    -0.624 OA
BRANCH 761 764
ATOM    764  O5'   C A  35     -28.823  15.530  42.036  1.00  0.00    -0.287 OA
BRANCH 764 765
ATOM    765  C5'   C A  35     -29.484  14.542  42.824  1.00  0.00     0.216 C 
BRANCH 765 766
ATOM    766  C4'   C A  35     -30.639  13.946  42.053  1.00  0.00     0.180 C 
ATOM    767  O4'   C A  35     -30.306  13.951  40.637  1.00  0.00    -0.353 OA
ATOM    768  C1'   C A  35     -30.717  12.732  40.041  1.00  0.00     0.264 C 
ATOM    769  N1    C A  35     -29.517  11.995  39.612  1.00  0.00    -0.278 N 
ATOM    770  C2'   C A  35     -31.563  11.986  41.072  1.00  0.00     0.199 C 
ATOM    771  C6    C A  35     -28.308  12.213  40.212  1.00  0.00     0.102 A 
ATOM    772  C2    C A  35     -29.631  11.066  38.575  1.00  0.00     0.352 A 
ATOM    773  C5    C A  35     -27.214  11.546  39.826  1.00  0.00     0.067 A 
ATOM    774  C4    C A  35     -27.360  10.605  38.765  1.00  0.00     0.128 A 
ATOM    775  N4    C A  35     -26.307   9.912  38.333  1.00  0.00    -0.384 N 
ATOM    776  N3    C A  35     -28.534  10.386  38.172  1.00  0.00    -0.177 NA
ATOM    777  H41   C A  35     -25.400  10.047  38.755  1.00  0.00     0.157 HD
ATOM    778  H42   C A  35     -26.426   9.250  37.580  1.00  0.00     0.157 HD
ATOM    779  O2    C A  35     -30.738  10.887  38.047  1.00  0.00    -0.244 OA
ATOM    780  C3'   C A  35     -30.956  12.491  42.375  1.00  0.00     0.198 C 
ATOM    781  O2'   C A  35     -32.910  12.398  40.940  1.00  0.00    -0.388 OA
ATOM    782  O3'   C A  35     -31.861  12.382  43.471  1.00  0.00    -0.279 OA
ATOM    783  P     A A  36     -31.478  11.467  44.737  1.00  0.00     0.408 P 
ATOM    784  OP2   A A  36     -30.300  12.073  45.407  1.00  0.00    -0.624 OA
ATOM    785  O5'   A A  36     -31.025  10.081  44.091  1.00  0.00    -0.287 OA
ATOM    786  OP1   A A  36     -32.726  11.243  45.510  1.00  0.00    -0.624 OA
ATOM    787  C5'   A A  36     -31.686   8.858  44.418  1.00  0.00     0.216 C 
ATOM    788  C4'   A A  36     -32.733   8.532  43.375  1.00  0.00     0.180 C 
ATOM    789  C3'   A A  36     -32.783   7.067  42.946  1.00  0.00     0.198 C 
ATOM    790  O4'   A A  36     -32.438   9.285  42.164  1.00  0.00    -0.353 OA
ATOM    791  O3'   A A  36     -33.746   6.334  43.700  1.00  0.00    -0.279 OA
ATOM    792  C2'   A A  36     -33.152   7.152  41.471  1.00  0.00     0.199 C 
ATOM    793  P     A A  37     -33.266   5.161  44.689  1.00  0.00     0.408 P 
ATOM    794  OP2   A A  37     -31.923   5.509  45.221  1.00  0.00    -0.624 OA
ATOM    795  OP1   A A  37     -34.383   4.904  45.635  1.00  0.00    -0.624 OA
ATOM    796  O5'   A A  37     -33.113   3.891  43.739  1.00  0.00    -0.287 OA
ATOM    797  O2'   A A  36     -34.538   7.379  41.300  1.00  0.00    -0.388 OA
ATOM    798  C1'   A A  36     -32.393   8.408  41.057  1.00  0.00     0.262 C 
ATOM    799 'HO2   A A  36     -34.952   7.181  42.141  1.00  0.00     0.210 HD
ATOM    800  N9    A A  36     -30.991   8.171  40.714  1.00  0.00    -0.294 N 
ATOM    801  C8    A A  36     -29.882   8.803  41.220  1.00  0.00     0.214 A 
ATOM    802  C4    A A  36     -30.517   7.254  39.807  1.00  0.00     0.167 A 
ATOM    803  N7    A A  36     -28.751   8.370  40.717  1.00  0.00    -0.236 NA
ATOM    804  C5    A A  36     -29.142   7.386  39.820  1.00  0.00     0.149 A 
ATOM    805  C6    A A  36     -28.413   6.543  38.965  1.00  0.00     0.155 A 
ATOM    806  N6    A A  36     -27.083   6.555  38.870  1.00  0.00    -0.382 N 
ATOM    807  N1    A A  36     -29.105   5.672  38.200  1.00  0.00    -0.222 NA
ATOM    808  H62   A A  36     -26.621   5.921  38.235  1.00  0.00     0.157 HD
ATOM    809  H61   A A  36     -26.546   7.198  39.434  1.00  0.00     0.157 HD
ATOM    810  C2    A A  36     -30.441   5.658  38.294  1.00  0.00     0.237 A 
ATOM    811  N3    A A  36     -31.239   6.400  39.059  1.00  0.00    -0.222 NA
ATOM    812 'HO2   C A  35     -33.380  12.047  41.697  1.00  0.00     0.210 HD
BRANCH 796 813
ATOM    813  C5'   A A  37     -34.208   3.000  43.522  1.00  0.00     0.216 C 
BRANCH 813 814
ATOM    814  C4'   A A  37     -33.731   1.743  42.830  1.00  0.00     0.180 C 
ATOM    815  O4'   A A  37     -33.200   2.085  41.524  1.00  0.00    -0.353 OA
ATOM    816  C1'   A A  37     -32.148   1.196  41.191  1.00  0.00     0.262 C 
ATOM    817  C2'   A A  37     -31.970   0.222  42.358  1.00  0.00     0.199 C 
ATOM    818  C3'   A A  37     -32.584   1.011  43.511  1.00  0.00     0.198 C 
BRANCH 816 819
ATOM    819  N9    A A  37     -30.951   1.984  40.903  1.00  0.00    -0.294 N 
ATOM    820  C8    A A  37     -30.677   3.276  41.274  1.00  0.00     0.214 A 
ATOM    821  N7    A A  37     -29.507   3.706  40.867  1.00  0.00    -0.236 NA
ATOM    822  C5    A A  37     -28.975   2.622  40.180  1.00  0.00     0.149 A 
ATOM    823  C6    A A  37     -27.755   2.433  39.506  1.00  0.00     0.155 A 
ATOM    824  C4    A A  37     -29.855   1.555  40.195  1.00  0.00     0.167 A 
ATOM    825  N6    A A  37     -26.809   3.367  39.411  1.00  0.00    -0.382 N 
ATOM    826  N1    A A  37     -27.537   1.234  38.928  1.00  0.00    -0.222 NA
ATOM    827  H61   A A  37     -26.952   4.271  39.838  1.00  0.00     0.157 HD
ATOM    828  H62   A A  37     -25.954   3.162  38.917  1.00  0.00     0.157 HD
ATOM    829  C2    A A  37     -28.485   0.293  39.025  1.00  0.00     0.237 A 
ATOM    830  N3    A A  37     -29.669   0.350  39.630  1.00  0.00    -0.222 NA
ENDBRANCH 816 819
BRANCH 817 831
ATOM    831  O2'   A A  37     -32.714  -0.951  42.083  1.00  0.00    -0.388 OA
ATOM    832 'HO2   A A  37     -33.566  -0.852  42.510  1.00  0.00     0.210 HD
ENDBRANCH 817 831
BRANCH 818 833
ATOM    833  O3'   A A  37     -33.054   0.173  44.564  1.00  0.00    -0.279 OA
BRANCH 833 834
ATOM    834  P     A A  38     -32.774   0.576  46.096  1.00  0.00     0.408 P 
ATOM    835  OP1   A A  38     -34.089   0.675  46.776  1.00  0.00    -0.624 OA
ATOM    836  OP2   A A  38     -31.853   1.742  46.106  1.00  0.00    -0.624 OA
BRANCH 834 837
ATOM    837  O5'   A A  38     -31.996  -0.680  46.696  1.00  0.00    -0.287 OA
BRANCH 837 838
ATOM    838  C5'   A A  38     -30.686  -0.540  47.249  1.00  0.00     0.216 C 
BRANCH 838 839
ATOM    839  C4'   A A  38     -29.971  -1.872  47.242  1.00  0.00     0.180 C 
ATOM    840  C3'   A A  38     -28.462  -1.797  47.465  1.00  0.00     0.198 C 
ATOM    841  C2'   A A  38     -27.938  -3.003  46.691  1.00  0.00     0.199 C 
ATOM    842  O2'   A A  38     -28.074  -4.212  47.413  1.00  0.00    -0.388 OA
ATOM    843  C1'   A A  38     -28.902  -3.041  45.506  1.00  0.00     0.262 C 
ATOM    844 'HO2   A A  38     -29.010  -4.364  47.555  1.00  0.00     0.210 HD
ATOM    845  O4'   A A  38     -30.127  -2.473  45.927  1.00  0.00    -0.353 OA
BRANCH 840 846
ATOM    846  O3'   A A  38     -28.066  -1.824  48.845  1.00  0.00    -0.279 OA
ATOM    847  P     T A  39     -26.509  -1.733  49.265  1.00  0.00     0.408 P 
ATOM    848  OP2   T A  39     -26.059  -3.107  49.606  1.00  0.00    -0.624 OA
ATOM    849  OP1   T A  39     -25.751  -0.944  48.263  1.00  0.00    -0.624 OA
ATOM    850  O5'   T A  39     -26.530  -0.879  50.610  1.00  0.00    -0.287 OA
ATOM    851  C5'   T A  39     -27.590   0.039  50.883  1.00  0.00     0.216 C 
ATOM    852  C4'   T A  39     -27.050   1.271  51.571  1.00  0.00     0.180 C 
ATOM    853  O4'   T A  39     -26.772   0.942  52.964  1.00  0.00    -0.353 OA
ATOM    854  C3'   T A  39     -25.738   1.814  51.008  1.00  0.00     0.198 C 
ATOM    855  C1'   T A  39     -25.409   1.179  53.245  1.00  0.00     0.264 C 
ATOM    856  C2'   T A  39     -24.689   1.161  51.901  1.00  0.00     0.199 C 
ATOM    857  N1    T A  39     -24.939   0.166  54.204  1.00  0.00    -0.280 N 
ATOM    858  O2'   T A  39     -23.521   1.958  52.004  1.00  0.00    -0.388 OA
ATOM    859 'HO2   T A  39     -23.361   2.331  51.138  1.00  0.00     0.210 HD
ATOM    860  C2    T A  39     -25.307  -1.155  54.002  1.00  0.00     0.331 A 
ATOM    861  C6    T A  39     -24.153   0.526  55.275  1.00  0.00     0.104 A 
ATOM    862  N3    T A  39     -24.835  -2.037  54.940  1.00  0.00    -0.275 N 
ATOM    863  O2    T A  39     -25.996  -1.522  53.069  1.00  0.00    -0.246 OA
ATOM    864  H3    T A  39     -25.091  -3.004  54.813  1.00  0.00     0.173 HD
ATOM    865  C4    T A  39     -24.050  -1.746  56.031  1.00  0.00     0.250 A 
ATOM    866  O4    T A  39     -23.712  -2.653  56.791  1.00  0.00    -0.268 OA
ATOM    867  C5    T A  39     -23.710  -0.365  56.167  1.00  0.00     0.092 A 
ATOM    868  O3'   T A  39     -25.708   3.238  51.078  1.00  0.00    -0.279 OA
ATOM    869  P     C A  40     -24.905   4.082  49.968  1.00  0.00     0.408 P 
ATOM    870  OP2   C A  40     -25.847   5.046  49.343  1.00  0.00    -0.624 OA
ATOM    871  O5'   C A  40     -24.492   3.009  48.865  1.00  0.00    -0.287 OA
ATOM    872  OP1   C A  40     -23.661   4.582  50.607  1.00  0.00    -0.624 OA
ATOM    873  C5'   C A  40     -23.939   3.420  47.614  1.00  0.00     0.216 C 
ATOM    874  C4'   C A  40     -23.660   2.219  46.742  1.00  0.00     0.180 C 
ATOM    875  O4'   C A  40     -24.885   1.442  46.620  1.00  0.00    -0.353 OA
ATOM    876  C3'   C A  40     -23.235   2.556  45.314  1.00  0.00     0.198 C 
ATOM    877  C1'   C A  40     -25.214   1.278  45.257  1.00  0.00     0.264 C 
ATOM    878  N1    C A  40     -26.286   2.233  44.922  1.00  0.00    -0.278 N 
ATOM    879  C2'   C A  40     -23.916   1.476  44.479  1.00  0.00     0.199 C 
ATOM    880  C6    C A  40     -26.946   2.913  45.908  1.00  0.00     0.102 A 
ATOM    881  C2    C A  40     -26.623   2.435  43.579  1.00  0.00     0.352 A 
ATOM    882  C5    C A  40     -27.921   3.783  45.614  1.00  0.00     0.067 A 
ATOM    883  C4    C A  40     -28.243   3.969  44.239  1.00  0.00     0.128 A 
ATOM    884  N3    C A  40     -27.606   3.311  43.269  1.00  0.00    -0.177 NA
ATOM    885  N4    C A  40     -29.204   4.820  43.884  1.00  0.00    -0.384 N 
ATOM    886  H41   C A  40     -29.711   5.339  44.587  1.00  0.00     0.157 HD
ATOM    887  H42   C A  40     -29.424   4.943  42.906  1.00  0.00     0.157 HD
ATOM    888  O2    C A  40     -26.012   1.807  42.703  1.00  0.00    -0.244 OA
ATOM    889  O2'   C A  40     -23.181   0.266  44.505  1.00  0.00    -0.388 OA
ATOM    890 'HO2   C A  40     -22.310   0.478  44.839  1.00  0.00     0.210 HD
ATOM    891  O3'   C A  40     -21.816   2.528  45.174  1.00  0.00    -0.279 OA
ATOM    892  P     C A  41     -21.006   3.902  44.962  1.00  0.00     0.408 P 
ATOM    893  O5'   C A  41     -21.609   4.502  43.614  1.00  0.00    -0.287 OA
ATOM    894  OP2   C A  41     -21.357   4.824  46.071  1.00  0.00    -0.624 OA
ATOM    895  OP1   C A  41     -19.583   3.551  44.720  1.00  0.00    -0.624 OA
ATOM    896  C5'   C A  41     -21.442   3.825  42.369  1.00  0.00     0.216 C 
ATOM    897  C4'   C A  41     -21.961   4.683  41.239  1.00  0.00     0.180 C 
ATOM    898  O4'   C A  41     -23.415   4.704  41.296  1.00  0.00    -0.353 OA
ATOM    899  C3'   C A  41     -21.550   6.149  41.289  1.00  0.00     0.198 C 
ATOM    900  C1'   C A  41     -23.884   6.016  41.033  1.00  0.00     0.264 C 
ATOM    901  N1    C A  41     -24.502   6.546  42.260  1.00  0.00    -0.278 N 
ATOM    902  C2'   C A  41     -22.690   6.834  40.547  1.00  0.00     0.199 C 
ATOM    903  C2    C A  41     -25.276   7.705  42.176  1.00  0.00     0.352 A 
ATOM    904  C6    C A  41     -24.323   5.922  43.463  1.00  0.00     0.102 A 
ATOM    905  N3    C A  41     -25.843   8.206  43.296  1.00  0.00    -0.177 NA
ATOM    906  O2    C A  41     -25.423   8.250  41.074  1.00  0.00    -0.244 OA
ATOM    907  C4    C A  41     -25.661   7.592  44.466  1.00  0.00     0.128 A 
ATOM    908  N4    C A  41     -26.240   8.123  45.542  1.00  0.00    -0.384 N 
ATOM    909  C5    C A  41     -24.879   6.407  44.583  1.00  0.00     0.067 A 
ATOM    910  H41   C A  41     -26.129   7.689  46.448  1.00  0.00     0.157 HD
ATOM    911  H42   C A  41     -26.795   8.962  45.449  1.00  0.00     0.157 HD
ATOM    912  O2'   C A  41     -22.564   6.669  39.147  1.00  0.00    -0.388 OA
ATOM    913 'HO2   C A  41     -21.655   6.420  38.978  1.00  0.00     0.210 HD
ATOM    914  O3'   C A  41     -20.287   6.364  40.666  1.00  0.00    -0.279 OA
ATOM    915  P     C A  42     -19.404   7.646  41.071  1.00  0.00     0.408 P 
ATOM    916  OP2   C A  42     -19.347   7.728  42.554  1.00  0.00    -0.624 OA
ATOM    917  O5'   C A  42     -20.253   8.883  40.537  1.00  0.00    -0.287 OA
ATOM    918  OP1   C A  42     -18.141   7.577  40.292  1.00  0.00    -0.624 OA
ATOM    919  C5'   C A  42     -20.482   9.070  39.141  1.00  0.00     0.216 C 
ATOM    920  C4'   C A  42     -21.170  10.394  38.897  1.00  0.00     0.180 C 
ATOM    921  O4'   C A  42     -22.542  10.308  39.369  1.00  0.00    -0.353 OA
ATOM    922  C3'   C A  42     -20.585  11.582  39.646  1.00  0.00     0.198 C 
ATOM    923  C1'   C A  42     -22.927  11.545  39.943  1.00  0.00     0.264 C 
ATOM    924  C2'   C A  42     -21.774  12.530  39.739  1.00  0.00     0.199 C 
BRANCH 923 925
ATOM    925  N1    C A  42     -23.266  11.315  41.357  1.00  0.00    -0.278 N 
ATOM    926  C6    C A  42     -22.662  10.316  42.071  1.00  0.00     0.102 A 
ATOM    927  C5    C A  42     -22.973  10.098  43.355  1.00  0.00     0.067 A 
ATOM    928  C4    C A  42     -23.952  10.949  43.945  1.00  0.00     0.128 A 
ATOM    929  N3    C A  42     -24.543  11.929  43.260  1.00  0.00    -0.177 NA
ATOM    930  N4    C A  42     -24.306  10.782  45.218  1.00  0.00    -0.384 N 
ATOM    931  C2    C A  42     -24.220  12.135  41.964  1.00  0.00     0.352 A 
ATOM    932  O2    C A  42     -24.752  13.035  41.297  1.00  0.00    -0.244 OA
ATOM    933  H42   C A  42     -25.002  11.391  45.623  1.00  0.00     0.157 HD
ATOM    934  H41   C A  42     -23.883  10.052  45.773  1.00  0.00     0.157 HD
ENDBRANCH 923 925
BRANCH 924 935
ATOM    935  O2'   C A  42     -21.977  13.217  38.518  1.00  0.00    -0.388 OA
ATOM    936 'HO2   C A  42     -21.317  13.909  38.481  1.00  0.00     0.210 HD
ENDBRANCH 924 935
BRANCH 922 937
ATOM    937  O3'   C A  42     -19.487  12.156  38.941  1.00  0.00    -0.279 OA
BRANCH 937 938
ATOM    938  P     G A  43     -18.026  12.171  39.613  1.00  0.00     0.408 P 
ATOM    939  OP2   G A  43     -18.023  11.228  40.760  1.00  0.00    -0.624 OA
ATOM    940  OP1   G A  43     -17.036  11.998  38.519  1.00  0.00    -0.624 OA
BRANCH 938 941
ATOM    941  O5'   G A  43     -17.877  13.651  40.184  1.00  0.00    -0.287 OA
BRANCH 941 942
ATOM    942  C5'   G A  43     -16.926  14.561  39.632  1.00  0.00     0.216 C 
BRANCH 942 943
ATOM    943  C4'   G A  43     -16.554  15.611  40.655  1.00  0.00     0.180 C 
ATOM    944  O4'   G A  43     -17.602  16.615  40.692  1.00  0.00    -0.353 OA
ATOM    945  C1'   G A  43     -17.797  17.055  42.024  1.00  0.00     0.262 C 
ATOM    946  C2'   G A  43     -16.757  16.364  42.906  1.00  0.00     0.199 C 
ATOM    947  C3'   G A  43     -16.442  15.115  42.090  1.00  0.00     0.198 C 
ATOM    948  O2'   G A  43     -15.623  17.205  43.013  1.00  0.00    -0.388 OA
ATOM    949  O3'   G A  43     -15.138  14.610  42.370  1.00  0.00    -0.279 OA
ATOM    950  P     G A  44     -14.888  13.021  42.434  1.00  0.00     0.408 P 
ATOM    951  OP2   G A  44     -16.018  12.390  43.164  1.00  0.00    -0.624 OA
ATOM    952  O5'   G A  44     -13.575  12.874  43.326  1.00  0.00    -0.287 OA
ATOM    953  OP1   G A  44     -14.558  12.568  41.059  1.00  0.00    -0.624 OA
ATOM    954  C5'   G A  44     -12.774  14.011  43.649  1.00  0.00     0.216 C 
ATOM    955  C4'   G A  44     -11.836  13.684  44.788  1.00  0.00     0.180 C 
ATOM    956  C3'   G A  44     -10.756  12.653  44.462  1.00  0.00     0.198 C 
ATOM    957  O4'   G A  44     -12.613  13.122  45.884  1.00  0.00    -0.353 OA
ATOM    958  C2'   G A  44     -11.301  11.361  45.062  1.00  0.00     0.199 C 
ATOM    959  C1'   G A  44     -12.050  11.893  46.279  1.00  0.00     0.262 C 
ATOM    960  N9    G A  44     -13.123  11.026  46.759  1.00  0.00    -0.293 N 
ATOM    961  C4    G A  44     -13.691   9.970  46.084  1.00  0.00     0.187 A 
ATOM    962  C8    G A  44     -13.764  11.098  47.971  1.00  0.00     0.214 A 
ATOM    963  N3    G A  44     -13.356   9.546  44.848  1.00  0.00    -0.044 NA
ATOM    964  C5    G A  44     -14.648   9.463  46.939  1.00  0.00     0.173 A 
ATOM    965  C2    G A  44     -14.078   8.506  44.472  1.00  0.00     0.703 A 
ATOM    966  N1    G A  44     -15.051   7.926  45.243  1.00  0.00    -0.153 N 
ATOM    967  N2    G A  44     -13.873   7.959  43.271  1.00  0.00    -0.233 N 
ATOM    968  C6    G A  44     -15.414   8.345  46.518  1.00  0.00     0.292 A 
ATOM    969  H1    G A  44     -15.544   7.134  44.861  1.00  0.00     0.187 HD
ATOM    970  O6    G A  44     -16.311   7.748  47.127  1.00  0.00    -0.265 OA
ATOM    971  H22   G A  44     -14.415   7.165  42.968  1.00  0.00     0.174 HD
ATOM    972  H21   G A  44     -13.165   8.353  42.667  1.00  0.00     0.174 HD
ATOM    973  N7    G A  44     -14.683  10.185  48.125  1.00  0.00    -0.234 NA
ATOM    974 'HO2   G A  43     -14.854  16.648  42.888  1.00  0.00     0.210 HD
BRANCH 945 975
ATOM    975  N9    G A  43     -19.175  16.763  42.407  1.00  0.00    -0.293 N 
ATOM    976  C4    G A  43     -20.228  16.535  41.556  1.00  0.00     0.187 A 
ATOM    977  N3    G A  43     -20.174  16.540  40.208  1.00  0.00    -0.044 NA
ATOM    978  C5    G A  43     -21.316  16.306  42.372  1.00  0.00     0.173 A 
ATOM    979  C2    G A  43     -21.351  16.287  39.666  1.00  0.00     0.703 A 
ATOM    980  N2    G A  43     -21.476  16.256  38.337  1.00  0.00    -0.233 N 
ATOM    981  N1    G A  43     -22.492  16.046  40.386  1.00  0.00    -0.153 N 
ATOM    982  H22   G A  43     -22.365  16.053  37.907  1.00  0.00     0.174 HD
ATOM    983  H21   G A  43     -20.659  16.430  37.768  1.00  0.00     0.174 HD
ATOM    984  C6    G A  43     -22.574  16.034  41.773  1.00  0.00     0.292 A 
ATOM    985  H1    G A  43     -23.342  15.863  39.875  1.00  0.00     0.187 HD
ATOM    986  O6    G A  43     -23.657  15.803  42.322  1.00  0.00    -0.265 OA
ATOM    987  N7    G A  43     -20.954  16.389  43.710  1.00  0.00    -0.234 NA
ATOM    988  C8    G A  43     -19.679  16.663  43.681  1.00  0.00     0.214 A 
ENDBRANCH 945 975
BRANCH 956 989
ATOM    989  O3'   G A  44      -9.500  13.018  45.028  1.00  0.00    -0.279 OA
BRANCH 989 990
ATOM    990  P     A A  45      -8.451  13.879  44.163  1.00  0.00     0.408 P 
ATOM    991  O5'   A A  45      -7.029  13.321  44.615  1.00  0.00    -0.287 OA
ATOM    992  C5'   A A  45      -5.820  13.891  44.110  1.00  0.00     0.216 C 
ATOM    993  C4'   A A  45      -4.767  12.819  43.944  1.00  0.00     0.180 C 
ATOM    994  O4'   A A  45      -3.782  12.969  45.007  1.00  0.00    -0.353 OA
ATOM    995  C3'   A A  45      -5.270  11.383  44.062  1.00  0.00     0.198 C 
ATOM    996  C1'   A A  45      -3.563  11.720  45.634  1.00  0.00     0.262 C 
ATOM    997  C2'   A A  45      -4.074  10.659  44.665  1.00  0.00     0.199 C 
ATOM    998  N9    A A  45      -4.252  11.726  46.924  1.00  0.00    -0.294 N 
ATOM    999  O2'   A A  45      -3.076  10.412  43.691  1.00  0.00    -0.388 OA
ATOM   1000 'HO2   A A  45      -3.499  10.489  42.835  1.00  0.00     0.210 HD
ATOM   1001  C4    A A  45      -4.065  10.842  47.960  1.00  0.00     0.167 A 
ATOM   1002  C8    A A  45      -5.214  12.606  47.352  1.00  0.00     0.214 A 
ATOM   1003  C5    A A  45      -4.934  11.244  48.958  1.00  0.00     0.149 A 
ATOM   1004  N3    A A  45      -3.217   9.799  48.001  1.00  0.00    -0.222 NA
ATOM   1005  N7    A A  45      -5.655  12.361  48.562  1.00  0.00    -0.236 NA
ATOM   1006  C6    A A  45      -4.936  10.489  50.143  1.00  0.00     0.155 A 
ATOM   1007  N6    A A  45      -5.724  10.754  51.186  1.00  0.00    -0.382 N 
ATOM   1008  N1    A A  45      -4.093   9.438  50.220  1.00  0.00    -0.222 NA
ATOM   1009  H62   A A  45      -5.686  10.180  52.018  1.00  0.00     0.157 HD
ATOM   1010  H61   A A  45      -6.362  11.535  51.144  1.00  0.00     0.157 HD
ATOM   1011  C2    A A  45      -3.308   9.167  49.169  1.00  0.00     0.237 A 
ATOM   1012  O3'   A A  45      -5.648  10.858  42.793  1.00  0.00    -0.279 OA
ATOM   1013  OP1   A A  45      -8.551  15.293  44.606  1.00  0.00    -0.624 OA
ATOM   1014  OP2   A A  45      -8.650  13.544  42.730  1.00  0.00    -0.624 OA
BRANCH 1012 1015
ATOM   1015  P     C A  46      -6.883   9.832  42.688  1.00  0.00     0.408 P 
ATOM   1016  OP1   C A  46      -7.828  10.160  43.786  1.00  0.00    -0.624 OA
ATOM   1017  OP2   C A  46      -6.346   8.453  42.569  1.00  0.00    -0.624 OA
BRANCH 1015 1018
ATOM   1018  O5'   C A  46      -7.579  10.213  41.306  1.00  0.00    -0.287 OA
BRANCH 1018 1019
ATOM   1019  C5'   C A  46      -7.053  11.253  40.483  1.00  0.00     0.216 C 
BRANCH 1019 1020
ATOM   1020  C4'   C A  46      -7.122  10.852  39.028  1.00  0.00     0.180 C 
ATOM   1021  O4'   C A  46      -8.345  10.100  38.794  1.00  0.00    -0.353 OA
ATOM   1022  C1'   C A  46      -8.856  10.411  37.507  1.00  0.00     0.264 C 
ATOM   1023  C2'   C A  46      -7.839  11.327  36.825  1.00  0.00     0.199 C 
ATOM   1024  C3'   C A  46      -7.201  11.999  38.032  1.00  0.00     0.198 C 
BRANCH 1022 1025
ATOM   1025  N1    C A  46     -10.187  11.021  37.666  1.00  0.00    -0.278 N 
ATOM   1026  C6    C A  46     -10.611  12.012  36.823  1.00  0.00     0.102 A 
ATOM   1027  C5    C A  46     -11.818  12.573  36.968  1.00  0.00     0.067 A 
ATOM   1028  C4    C A  46     -12.641  12.094  38.028  1.00  0.00     0.128 A 
ATOM   1029  N3    C A  46     -12.239  11.124  38.852  1.00  0.00    -0.177 NA
ATOM   1030  N4    C A  46     -13.852  12.613  38.224  1.00  0.00    -0.384 N 
ATOM   1031  C2    C A  46     -11.017  10.570  38.696  1.00  0.00     0.352 A 
ATOM   1032  O2    C A  46     -10.611   9.669  39.445  1.00  0.00    -0.244 OA
ATOM   1033  H42   C A  46     -14.430  12.264  38.976  1.00  0.00     0.157 HD
ATOM   1034  H41   C A  46     -14.193  13.350  37.623  1.00  0.00     0.157 HD
ENDBRANCH 1022 1025
BRANCH 1023 1035
ATOM   1035  O2'   C A  46      -6.901  10.526  36.131  1.00  0.00    -0.388 OA
ATOM   1036 'HO2   C A  46      -7.218  10.450  35.231  1.00  0.00     0.210 HD
ENDBRANCH 1023 1035
BRANCH 1024 1037
ATOM   1037  O3'   C A  46      -5.915  12.542  37.744  1.00  0.00    -0.279 OA
BRANCH 1037 1038
ATOM   1038  P     G A  47      -5.528  14.006  38.283  1.00  0.00     0.408 P 
ATOM   1039  OP2   G A  47      -6.645  14.513  39.121  1.00  0.00    -0.624 OA
ATOM   1040  OP1   G A  47      -4.163  13.915  38.861  1.00  0.00    -0.624 OA
BRANCH 1038 1041
ATOM   1041  O5'   G A  47      -5.449  14.896  36.964  1.00  0.00    -0.287 OA
BRANCH 1041 1042
ATOM   1042  C5'   G A  47      -5.334  16.315  37.045  1.00  0.00     0.216 C 
BRANCH 1042 1043
ATOM   1043  C4'   G A  47      -6.310  16.976  36.099  1.00  0.00     0.180 C 
ATOM   1044  O4'   G A  47      -5.930  16.692  34.727  1.00  0.00    -0.353 OA
ATOM   1045  C1'   G A  47      -7.092  16.659  33.914  1.00  0.00     0.262 C 
ATOM   1046  C2'   G A  47      -8.295  16.926  34.821  1.00  0.00     0.199 C 
ATOM   1047  N9    G A  47      -7.155  15.366  33.239  1.00  0.00    -0.293 N 
ATOM   1048  O2'   G A  47      -8.570  18.316  34.810  1.00  0.00    -0.388 OA
ATOM   1049  C3'   G A  47      -7.746  16.483  36.170  1.00  0.00     0.198 C 
ATOM   1050 'HO2   G A  47      -8.663  18.583  35.725  1.00  0.00     0.210 HD
ATOM   1051  O3'   G A  47      -8.456  17.052  37.266  1.00  0.00    -0.279 OA
ATOM   1052  P     A A  48      -9.768  16.315  37.835  1.00  0.00     0.408 P 
ATOM   1053  OP1   A A  48     -10.291  17.146  38.950  1.00  0.00    -0.624 OA
ATOM   1054  O5'   A A  48     -10.810  16.392  36.631  1.00  0.00    -0.287 OA
ATOM   1055  OP2   A A  48      -9.440  14.888  38.079  1.00  0.00    -0.624 OA
ATOM   1056  C5'   A A  48     -11.286  17.649  36.156  1.00  0.00     0.216 C 
ATOM   1057  C4'   A A  48     -12.128  17.457  34.915  1.00  0.00     0.180 C 
ATOM   1058  O4'   A A  48     -11.340  16.821  33.876  1.00  0.00    -0.353 OA
ATOM   1059  C3'   A A  48     -13.319  16.525  35.054  1.00  0.00     0.198 C 
ATOM   1060  C1'   A A  48     -12.204  16.097  33.014  1.00  0.00     0.262 C 
ATOM   1061  N9    A A  48     -11.704  14.728  32.892  1.00  0.00    -0.294 N 
ATOM   1062  C2'   A A  48     -13.616  16.178  33.599  1.00  0.00     0.199 C 
ATOM   1063  C8    A A  48     -10.698  14.122  33.603  1.00  0.00     0.214 A 
ATOM   1064  C4    A A  48     -12.171  13.774  32.018  1.00  0.00     0.167 A 
ATOM   1065  N7    A A  48     -10.483  12.875  33.260  1.00  0.00    -0.236 NA
ATOM   1066  C5    A A  48     -11.414  12.642  32.255  1.00  0.00     0.149 A 
ATOM   1067  C6    A A  48     -11.702  11.507  31.476  1.00  0.00     0.155 A 
ATOM   1068  N6    A A  48     -11.054  10.347  31.587  1.00  0.00    -0.382 N 
ATOM   1069  N1    A A  48     -12.692  11.607  30.562  1.00  0.00    -0.222 NA
ATOM   1070  H61   A A  48     -10.311  10.251  32.263  1.00  0.00     0.157 HD
ATOM   1071  H62   A A  48     -11.308   9.564  31.001  1.00  0.00     0.157 HD
ATOM   1072  C2    A A  48     -13.340  12.774  30.446  1.00  0.00     0.237 A 
ATOM   1073  N3    A A  48     -13.160  13.909  31.119  1.00  0.00    -0.222 NA
ATOM   1074  O2'   A A  48     -14.311  17.228  32.954  1.00  0.00    -0.388 OA
ATOM   1075 'HO2   A A  48     -14.697  17.768  33.644  1.00  0.00     0.210 HD
ATOM   1076  O3'   A A  48     -14.420  17.157  35.702  1.00  0.00    -0.279 OA
ATOM   1077  P     G A  49     -15.562  16.259  36.394  1.00  0.00     0.408 P 
ATOM   1078  OP1   G A  49     -16.400  17.171  37.215  1.00  0.00    -0.624 OA
ATOM   1079  OP2   G A  49     -14.922  15.080  37.031  1.00  0.00    -0.624 OA
ATOM   1080  O5'   G A  49     -16.444  15.745  35.170  1.00  0.00    -0.287 OA
ATOM   1081  C5'   G A  49     -17.127  16.667  34.323  1.00  0.00     0.216 C 
ATOM   1082  C4'   G A  49     -17.928  15.925  33.278  1.00  0.00     0.180 C 
ATOM   1083  O4'   G A  49     -17.024  15.299  32.329  1.00  0.00    -0.353 OA
ATOM   1084  C3'   G A  49     -18.770  14.763  33.783  1.00  0.00     0.198 C 
ATOM   1085  C1'   G A  49     -17.600  14.093  31.852  1.00  0.00     0.262 C 
ATOM   1086  C2'   G A  49     -18.972  13.949  32.513  1.00  0.00     0.199 C 
ATOM   1087  N9    G A  49     -16.693  12.992  32.159  1.00  0.00    -0.293 N 
ATOM   1088  O2'   G A  49     -19.946  14.544  31.676  1.00  0.00    -0.388 OA
ATOM   1089 'HO2   G A  49     -20.454  15.139  32.227  1.00  0.00     0.210 HD
ATOM   1090  C8    G A  49     -15.673  12.985  33.079  1.00  0.00     0.214 A 
ATOM   1091  C4    G A  49     -16.701  11.747  31.580  1.00  0.00     0.187 A 
ATOM   1092  N7    G A  49     -15.036  11.847  33.132  1.00  0.00    -0.234 NA
ATOM   1093  C5    G A  49     -15.676  11.053  32.190  1.00  0.00     0.173 A 
ATOM   1094  C6    G A  49     -15.433   9.711  31.797  1.00  0.00     0.292 A 
ATOM   1095  O6    G A  49     -14.572   8.928  32.215  1.00  0.00    -0.265 OA
ATOM   1096  N1    G A  49     -16.321   9.299  30.811  1.00  0.00    -0.153 N 
ATOM   1097  H1    G A  49     -16.228   8.356  30.468  1.00  0.00     0.187 HD
ATOM   1098  C2    G A  49     -17.313  10.075  30.269  1.00  0.00     0.703 A 
ATOM   1099  N3    G A  49     -17.550  11.324  30.622  1.00  0.00    -0.044 NA
ATOM   1100  N2    G A  49     -18.066   9.498  29.330  1.00  0.00    -0.233 N 
ATOM   1101  H21   G A  49     -18.810  10.025  28.898  1.00  0.00     0.174 HD
ATOM   1102  H22   G A  49     -17.893   8.541  29.056  1.00  0.00     0.174 HD
ATOM   1103  O3'   G A  49     -19.999  15.200  34.355  1.00  0.00    -0.279 OA
ATOM   1104  P     C A  50     -20.751  14.272  35.433  1.00  0.00     0.408 P 
ATOM   1105  OP1   C A  50     -22.039  14.934  35.765  1.00  0.00    -0.624 OA
ATOM   1106  OP2   C A  50     -19.793  13.943  36.520  1.00  0.00    -0.624 OA
ATOM   1107  O5'   C A  50     -21.072  12.931  34.633  1.00  0.00    -0.287 OA
ATOM   1108  C5'   C A  50     -22.003  12.929  33.551  1.00  0.00     0.216 C 
ATOM   1109  C4'   C A  50     -21.972  11.597  32.836  1.00  0.00     0.180 C 
ATOM   1110  O4'   C A  50     -20.623  11.314  32.384  1.00  0.00    -0.353 OA
ATOM   1111  C3'   C A  50     -22.314  10.378  33.677  1.00  0.00     0.198 C 
ATOM   1112  C1'   C A  50     -20.429   9.911  32.334  1.00  0.00     0.264 C 
ATOM   1113  N1    C A  50     -19.230   9.568  33.117  1.00  0.00    -0.278 N 
ATOM   1114  C2'   C A  50     -21.706   9.248  32.857  1.00  0.00     0.199 C 
ATOM   1115  C6    C A  50     -18.649  10.482  33.953  1.00  0.00     0.102 A 
ATOM   1116  C2    C A  50     -18.693   8.285  32.996  1.00  0.00     0.352 A 
ATOM   1117  C5    C A  50     -17.559  10.172  34.665  1.00  0.00     0.067 A 
ATOM   1118  C4    C A  50     -17.034   8.854  34.521  1.00  0.00     0.128 A 
ATOM   1119  N4    C A  50     -15.952   8.483  35.203  1.00  0.00    -0.384 N 
ATOM   1120  N3    C A  50     -17.596   7.956  33.711  1.00  0.00    -0.177 NA
ATOM   1121  H42   C A  50     -15.588   7.547  35.088  1.00  0.00     0.157 HD
ATOM   1122  H41   C A  50     -15.495   9.132  35.827  1.00  0.00     0.157 HD
ATOM   1123  O2    C A  50     -19.237   7.475  32.233  1.00  0.00    -0.244 OA
ATOM   1124  O2'   C A  50     -22.527   8.918  31.753  1.00  0.00    -0.388 OA
ATOM   1125 'HO2   C A  50     -23.372   9.344  31.901  1.00  0.00     0.210 HD
ATOM   1126  O3'   C A  50     -23.720  10.228  33.855  1.00  0.00    -0.279 OA
ATOM   1127  P     C A  51     -24.280   9.350  35.083  1.00  0.00     0.408 P 
ATOM   1128  OP1   C A  51     -25.762   9.433  35.046  1.00  0.00    -0.624 OA
ATOM   1129  OP2   C A  51     -23.553   9.749  36.315  1.00  0.00    -0.624 OA
ATOM   1130  O5'   C A  51     -23.855   7.859  34.718  1.00  0.00    -0.287 OA
ATOM   1131  C5'   C A  51     -24.337   7.227  33.533  1.00  0.00     0.216 C 
ATOM   1132  C4'   C A  51     -23.834   5.804  33.454  1.00  0.00     0.180 C 
ATOM   1133  O4'   C A  51     -22.408   5.814  33.186  1.00  0.00    -0.353 OA
ATOM   1134  C3'   C A  51     -23.954   4.988  34.732  1.00  0.00     0.198 C 
ATOM   1135  C1'   C A  51     -21.801   4.691  33.805  1.00  0.00     0.264 C 
ATOM   1136  N1    C A  51     -20.735   5.170  34.700  1.00  0.00    -0.278 N 
ATOM   1137  C2'   C A  51     -22.899   3.907  34.526  1.00  0.00     0.199 C 
ATOM   1138  C6    C A  51     -20.751   6.446  35.192  1.00  0.00     0.102 A 
ATOM   1139  C2    C A  51     -19.700   4.298  35.041  1.00  0.00     0.352 A 
ATOM   1140  C5    C A  51     -19.778   6.888  35.999  1.00  0.00     0.067 A 
ATOM   1141  C4    C A  51     -18.733   5.975  36.327  1.00  0.00     0.128 A 
ATOM   1142  N4    C A  51     -17.734   6.356  37.122  1.00  0.00    -0.384 N 
ATOM   1143  N3    C A  51     -18.712   4.728  35.857  1.00  0.00    -0.177 NA
ATOM   1144  H41   C A  51     -17.708   7.291  37.500  1.00  0.00     0.157 HD
ATOM   1145  H42   C A  51     -16.999   5.697  37.340  1.00  0.00     0.157 HD
ATOM   1146  O2    C A  51     -19.711   3.145  34.587  1.00  0.00    -0.244 OA
ATOM   1147  O2'   C A  51     -23.371   2.892  33.660  1.00  0.00    -0.388 OA
ATOM   1148 'HO2   C A  51     -24.239   3.164  33.362  1.00  0.00     0.210 HD
ATOM   1149  O3'   C A  51     -25.263   4.447  34.893  1.00  0.00    -0.279 OA
ATOM   1150  P     C A  52     -25.769   3.996  36.352  1.00  0.00     0.408 P 
ATOM   1151  OP1   C A  52     -27.218   3.691  36.246  1.00  0.00    -0.624 OA
ATOM   1152  OP2   C A  52     -25.299   4.996  37.345  1.00  0.00    -0.624 OA
ATOM   1153  O5'   C A  52     -24.996   2.630  36.626  1.00  0.00    -0.287 OA
ATOM   1154  C5'   C A  52     -25.128   1.519  35.740  1.00  0.00     0.216 C 
ATOM   1155  C4'   C A  52     -24.242   0.381  36.193  1.00  0.00     0.180 C 
ATOM   1156  O4'   C A  52     -22.863   0.703  35.875  1.00  0.00    -0.353 OA
ATOM   1157  C3'   C A  52     -24.233   0.114  37.691  1.00  0.00     0.182 C 
ATOM   1158  C1'   C A  52     -22.010   0.197  36.886  1.00  0.00     0.264 C 
ATOM   1159  N1    C A  52     -21.257   1.323  37.462  1.00  0.00    -0.278 N 
ATOM   1160  C2'   C A  52     -22.877  -0.550  37.902  1.00  0.00     0.198 C 
ATOM   1161  C6    C A  52     -21.859   2.532  37.676  1.00  0.00     0.102 A 
ATOM   1162  C2    C A  52     -19.911   1.137  37.787  1.00  0.00     0.352 A 
ATOM   1163  C5    C A  52     -21.176   3.560  38.196  1.00  0.00     0.067 A 
ATOM   1164  C4    C A  52     -19.804   3.343  38.515  1.00  0.00     0.128 A 
ATOM   1165  N4    C A  52     -19.072   4.328  39.033  1.00  0.00    -0.384 N 
ATOM   1166  N3    C A  52     -19.210   2.167  38.311  1.00  0.00    -0.177 NA
ATOM   1167  H41   C A  52     -19.483   5.233  39.203  1.00  0.00     0.157 HD
ATOM   1168  H42   C A  52     -18.099   4.159  39.250  1.00  0.00     0.157 HD
ATOM   1169  O2    C A  52     -19.392   0.031  37.587  1.00  0.00    -0.244 OA
ATOM   1170  O2'   C A  52     -22.917  -1.919  37.544  1.00  0.00    -0.388 OA
ATOM   1171 'HO2   C A  52     -23.812  -2.224  37.700  1.00  0.00     0.210 HD
ATOM   1172  O3'   C A  52     -25.321  -0.723  38.099  1.00  0.00    -0.390 OA
ATOM   1173 'HO3   C A  52     -26.120  -0.356  37.714  1.00  0.00     0.210 HD
ATOM   1174  C4    G A  47      -7.936  15.053  32.154  1.00  0.00     0.187 A 
ATOM   1175  C8    G A  47      -6.461  14.225  33.558  1.00  0.00     0.214 A 
ATOM   1176  N3    G A  47      -8.781  15.890  31.517  1.00  0.00    -0.044 NA
ATOM   1177  C5    G A  47      -7.668  13.727  31.880  1.00  0.00     0.173 A 
ATOM   1178  C2    G A  47      -9.399  15.297  30.513  1.00  0.00     0.703 A 
ATOM   1179  N2    G A  47     -10.274  15.984  29.777  1.00  0.00    -0.233 N 
ATOM   1180  N1    G A  47      -9.205  13.987  30.157  1.00  0.00    -0.153 N 
ATOM   1181  H21   G A  47     -10.455  16.952  29.995  1.00  0.00     0.174 HD
ATOM   1182  H22   G A  47     -10.757  15.536  29.009  1.00  0.00     0.174 HD
ATOM   1183  C6    G A  47      -8.341  13.105  30.795  1.00  0.00     0.292 A 
ATOM   1184  H1    G A  47      -9.728  13.631  29.371  1.00  0.00     0.187 HD
ATOM   1185  O6    G A  47      -8.242  11.940  30.391  1.00  0.00    -0.265 OA
ATOM   1186  N7    G A  47      -6.734  13.219  32.772  1.00  0.00    -0.234 NA
ENDBRANCH 1042 1043
ENDBRANCH 1041 1042
ENDBRANCH 1038 1041
ENDBRANCH 1037 1038
ENDBRANCH 1024 1037
ENDBRANCH 1019 1020
ENDBRANCH 1018 1019
ENDBRANCH 1015 1018
ENDBRANCH 1012 1015
ENDBRANCH 989 990
ENDBRANCH 956 989
BRANCH 958 1187
ATOM   1187  O2'   G A  44     -10.251  10.521  45.507  1.00  0.00    -0.388 OA
ATOM   1188 'HO2   G A  44     -10.661   9.808  45.996  1.00  0.00     0.210 HD
ENDBRANCH 958 1187
ENDBRANCH 942 943
ENDBRANCH 941 942
ENDBRANCH 938 941
ENDBRANCH 937 938
ENDBRANCH 922 937
ENDBRANCH 840 846
BRANCH 843 1189
ATOM   1189  N9    A A  38     -28.427  -2.296  44.340  1.00  0.00    -0.294 N 
ATOM   1190  C4    A A  38     -27.138  -2.268  43.864  1.00  0.00     0.167 A 
ATOM   1191  N3    A A  38     -26.070  -2.909  44.367  1.00  0.00    -0.222 NA
ATOM   1192  C5    A A  38     -27.163  -1.439  42.757  1.00  0.00     0.149 A 
ATOM   1193  C2    A A  38     -24.982  -2.648  43.645  1.00  0.00     0.237 A 
ATOM   1194  N1    A A  38     -24.853  -1.876  42.560  1.00  0.00    -0.222 NA
ATOM   1195  C6    A A  38     -25.945  -1.245  42.081  1.00  0.00     0.155 A 
ATOM   1196  N6    A A  38     -25.812  -0.475  41.000  1.00  0.00    -0.382 N 
ATOM   1197  H62   A A  38     -24.905  -0.379  40.567  1.00  0.00     0.157 HD
ATOM   1198  H61   A A  38     -26.614   0.007  40.623  1.00  0.00     0.157 HD
ATOM   1199  N7    A A  38     -28.444  -0.953  42.536  1.00  0.00    -0.236 NA
ATOM   1200  C8    A A  38     -29.154  -1.489  43.501  1.00  0.00     0.214 A 
ENDBRANCH 843 1189
ENDBRANCH 838 839
ENDBRANCH 837 838
ENDBRANCH 834 837
ENDBRANCH 833 834
ENDBRANCH 818 833
ENDBRANCH 813 814
ENDBRANCH 796 813
ENDBRANCH 765 766
ENDBRANCH 764 765
ENDBRANCH 761 764
ENDBRANCH 760 761
ENDBRANCH 696 760
BRANCH 755 1201
ATOM   1201  N9    A A  29     -23.706  13.748  14.243  1.00  0.00    -0.294 N 
ATOM   1202  C8    A A  29     -23.802  14.907  13.512  1.00  0.00     0.214 A 
ATOM   1203  N7    A A  29     -22.682  15.586  13.450  1.00  0.00    -0.236 NA
ATOM   1204  C5    A A  29     -21.790  14.825  14.194  1.00  0.00     0.149 A 
ATOM   1205  C4    A A  29     -22.408  13.692  14.689  1.00  0.00     0.167 A 
ATOM   1206  C6    A A  29     -20.433  15.003  14.515  1.00  0.00     0.155 A 
ATOM   1207  N3    A A  29     -21.847  12.735  15.449  1.00  0.00    -0.222 NA
ATOM   1208  C2    A A  29     -20.568  13.013  15.687  1.00  0.00     0.237 A 
ATOM   1209  N1    A A  29     -19.839  14.061  15.280  1.00  0.00    -0.222 NA
ATOM   1210  N6    A A  29     -19.705  16.042  14.106  1.00  0.00    -0.382 N 
ATOM   1211  H61   A A  29     -20.130  16.757  13.533  1.00  0.00     0.157 HD
ATOM   1212  H62   A A  29     -18.734  16.122  14.376  1.00  0.00     0.157 HD
ENDBRANCH 755 1201
ENDBRANCH 627 628
ENDBRANCH 626 627
ENDBRANCH 623 626
ENDBRANCH 622 623
ENDBRANCH 592 622
BRANCH 594 1213
ATOM   1213  O2'   G A  28     -23.049   8.212  11.050  1.00  0.00    -0.388 OA
ATOM   1214 'HO2   G A  28     -22.374   8.349  11.715  1.00  0.00     0.210 HD
ENDBRANCH 594 1213
BRANCH 604 1215
ATOM   1215  N2    G A  28     -21.817   3.175   9.090  1.00  0.00    -0.233 N 
ATOM   1216  H21   G A  28     -22.301   2.947   8.234  1.00  0.00     0.174 HD
ATOM   1217  H22   G A  28     -20.827   3.376   9.078  1.00  0.00     0.174 HD
ENDBRANCH 604 1215
ENDBRANCH 552 553
ENDBRANCH 549 552
ENDBRANCH 548 549
ENDBRANCH 544 548
BRANCH 545 1218
ATOM   1218  O2'   C A  25     -25.543  -3.669  20.956  1.00  0.00    -0.388 OA
ATOM   1219 'HO2   C A  25     -24.814  -3.054  20.876  1.00  0.00     0.210 HD
ENDBRANCH 545 1218
BRANCH 546 1220
ATOM   1220  N1    C A  25     -28.189  -4.561  18.585  1.00  0.00    -0.278 N 
ATOM   1221  C2    C A  25     -27.359  -4.691  17.470  1.00  0.00     0.352 A 
ATOM   1222  N3    C A  25     -27.914  -4.835  16.246  1.00  0.00    -0.177 NA
ATOM   1223  O2    C A  25     -26.132  -4.669  17.629  1.00  0.00    -0.244 OA
ATOM   1224  C4    C A  25     -29.241  -4.858  16.115  1.00  0.00     0.128 A 
ATOM   1225  C5    C A  25     -30.112  -4.734  17.236  1.00  0.00     0.067 A 
ATOM   1226  N4    C A  25     -29.741  -5.004  14.890  1.00  0.00    -0.384 N 
ATOM   1227  C6    C A  25     -29.548  -4.586  18.441  1.00  0.00     0.102 A 
ATOM   1228  H42   C A  25     -29.118  -5.089  14.100  1.00  0.00     0.157 HD
ATOM   1229  H41   C A  25     -30.741  -5.026  14.748  1.00  0.00     0.157 HD
ENDBRANCH 546 1220
ENDBRANCH 513 543
ENDBRANCH 367 368
ENDBRANCH 364 367
ENDBRANCH 363 364
ENDBRANCH 360 363
ENDBRANCH 346 347
ENDBRANCH 345 346
ENDBRANCH 342 345
ENDBRANCH 341 342
ENDBRANCH 317 341
ENDBRANCH 251 252
ENDBRANCH 250 251
ENDBRANCH 247 250
ENDBRANCH 246 247
ENDBRANCH 223 246
ENDBRANCH 206 207
ENDBRANCH 205 206
ENDBRANCH 202 205
ENDBRANCH 201 202
ENDBRANCH 179 201
BRANCH 197 1230
ATOM   1230  N9    G A   9     -32.767   6.343  27.330  1.00  0.00    -0.293 N 
ATOM   1231  C4    G A   9     -31.980   5.291  26.928  1.00  0.00     0.187 A 
ATOM   1232  N3    G A   9     -30.690   5.371  26.538  1.00  0.00    -0.044 NA
ATOM   1233  C5    G A   9     -32.786   4.176  27.013  1.00  0.00     0.173 A 
ATOM   1234  C2    G A   9     -30.202   4.190  26.207  1.00  0.00     0.703 A 
ATOM   1235  N1    G A   9     -30.918   3.021  26.256  1.00  0.00    -0.153 N 
ATOM   1236  C6    G A   9     -32.245   2.913  26.656  1.00  0.00     0.292 A 
ATOM   1237  H1    G A   9     -30.448   2.173  25.981  1.00  0.00     0.187 HD
ATOM   1238  O6    G A   9     -32.795   1.806  26.666  1.00  0.00    -0.265 OA
ATOM   1239  N7    G A   9     -34.055   4.519  27.461  1.00  0.00    -0.234 NA
ATOM   1240  C8    G A   9     -33.996   5.811  27.634  1.00  0.00     0.214 A 
BRANCH 1234 1241
ATOM   1241  N2    G A   9     -28.936   4.088  25.796  1.00  0.00    -0.233 N 
ATOM   1242  H21   G A   9     -28.256   4.761  26.115  1.00  0.00     0.174 HD
ATOM   1243  H22   G A   9     -28.664   3.345  25.166  1.00  0.00     0.174 HD
ENDBRANCH 1234 1241
ENDBRANCH 197 1230
ENDBRANCH 165 166
ENDBRANCH 162 165
ENDBRANCH 137 162
ENDBRANCH 113 117
BRANCH 114 1244
ATOM   1244  O2'   G A   6     -32.078  -0.973  33.563  1.00  0.00    -0.388 OA
ATOM   1245 'HO2   G A   6     -31.181  -0.640  33.588  1.00  0.00     0.210 HD
ENDBRANCH 114 1244
BRANCH 115 1246
ATOM   1246  N9    G A   6     -31.431  -1.765  37.056  1.00  0.00    -0.293 N 
ATOM   1247  C8    G A   6     -32.073  -2.185  38.196  1.00  0.00     0.214 A 
ATOM   1248  N7    G A   6     -31.298  -2.849  39.009  1.00  0.00    -0.234 NA
ATOM   1249  C5    G A   6     -30.068  -2.872  38.365  1.00  0.00     0.173 A 
ATOM   1250  C4    G A   6     -30.135  -2.208  37.158  1.00  0.00     0.187 A 
ATOM   1251  C6    G A   6     -28.832  -3.450  38.759  1.00  0.00     0.292 A 
ATOM   1252  N3    G A   6     -29.157  -2.017  36.247  1.00  0.00    -0.044 NA
ATOM   1253  C2    G A   6     -28.015  -2.561  36.628  1.00  0.00     0.703 A 
ATOM   1254  N2    G A   6     -26.939  -2.468  35.842  1.00  0.00    -0.233 N 
ATOM   1255  N1    G A   6     -27.843  -3.239  37.808  1.00  0.00    -0.153 N 
ATOM   1256  H22   G A   6     -26.063  -2.883  36.127  1.00  0.00     0.174 HD
ATOM   1257  H21   G A   6     -27.008  -1.980  34.960  1.00  0.00     0.174 HD
ATOM   1258  H1    G A   6     -26.927  -3.615  38.001  1.00  0.00     0.187 HD
ATOM   1259  O6    G A   6     -28.569  -4.080  39.790  1.00  0.00    -0.265 OA
ENDBRANCH 115 1246
ENDBRANCH 111 112
ENDBRANCH 110 111
ENDBRANCH 107 110
ENDBRANCH 106 107
ENDBRANCH 102 106
BRANCH 103 1260
ATOM   1260  O2'   C A   5     -36.840   1.633  40.728  1.00  0.00    -0.388 OA
ATOM   1261 'HO2   C A   5     -36.310   1.024  41.245  1.00  0.00     0.210 HD
ENDBRANCH 103 1260
BRANCH 104 1262
ATOM   1262  N1    C A   5     -40.424   1.214  40.845  1.00  0.00    -0.278 N 
ATOM   1263  C2    C A   5     -40.953   1.587  42.082  1.00  0.00     0.352 A 
ATOM   1264  O2    C A   5     -40.376   2.462  42.743  1.00  0.00    -0.244 OA
ATOM   1265  N3    C A   5     -42.078   0.988  42.530  1.00  0.00    -0.177 NA
ATOM   1266  C4    C A   5     -42.674   0.053  41.790  1.00  0.00     0.128 A 
ATOM   1267  N4    C A   5     -43.782  -0.507  42.273  1.00  0.00    -0.384 N 
ATOM   1268  C5    C A   5     -42.160  -0.348  40.522  1.00  0.00     0.067 A 
ATOM   1269  H42   C A   5     -44.137  -0.220  43.176  1.00  0.00     0.157 HD
ATOM   1270  H41   C A   5     -44.267  -1.219  41.748  1.00  0.00     0.157 HD
ATOM   1271  C6    C A   5     -41.041   0.252  40.094  1.00  0.00     0.102 A 
ENDBRANCH 104 1262
ENDBRANCH 100 101
ENDBRANCH  99 100
ENDBRANCH  96  99
ENDBRANCH  95  96
ENDBRANCH  67  95
ENDBRANCH  24  27
ENDBRANCH  23  24
ENDBRANCH  22  23
BRANCH  21 1272
ATOM   1272  O2'   G A   1     -39.575   7.140  49.269  1.00  0.00    -0.388 OA
ATOM   1273 'HO2   G A   1     -39.816   7.467  48.402  1.00  0.00     0.210 HD
ENDBRANCH  21 1272
TORSDOF 402
ENDMDL
MODEL 5
REMARK VINA RESULT:      -2.1      2.028      3.199
REMARK WARNING: 32 MAX_TORS EXCEEDED!!!
REMARK  101 active torsions:
REMARK  status: ('A' for Active; 'I' for Inactive)
REMARK       I    between atoms: O5'_2  and  C5'_3 
REMARK       I    between atoms: C5'_3  and  C4'_4 
REMARK       I    between atoms: C1'_6  and  N9_7 
REMARK       I    between atoms: C2_10  and  N2_11 
REMARK    1  A    between atoms: C2'_21  and  O2'_22 
REMARK    2  A    between atoms: C3'_24  and  O3'_25 
REMARK    3  A    between atoms: O3'_25  and  P_26 
REMARK    4  A    between atoms: P_26  and  O5'_29 
REMARK       I    between atoms: O5'_29  and  C5'_30 
REMARK       I    between atoms: C5'_30  and  C4'_31 
REMARK       I    between atoms: C1'_33  and  N9_34 
REMARK       I    between atoms: C2_37  and  N2_38 
REMARK       I    between atoms: C2'_48  and  O2'_49 
REMARK       I    between atoms: C3'_51  and  O3'_52 
REMARK       I    between atoms: O3'_52  and  P_53 
REMARK       I    between atoms: P_53  and  O5'_56 
REMARK       I    between atoms: O5'_56  and  C5'_57 
REMARK       I    between atoms: C5'_57  and  C4'_58 
REMARK       I    between atoms: C1'_60  and  N1_61 
REMARK       I    between atoms: C4_66  and  N4_67 
REMARK       I    between atoms: C2'_71  and  O2'_72 
REMARK       I    between atoms: C3'_74  and  O3'_75 
REMARK       I    between atoms: O3'_75  and  P_76 
REMARK       I    between atoms: P_76  and  O5'_79 
REMARK       I    between atoms: O5'_79  and  C5'_80 
REMARK       I    between atoms: C5'_80  and  C4'_81 
REMARK       I    between atoms: C1'_83  and  N1_84 
REMARK       I    between atoms: C2'_93  and  O2'_94 
REMARK    5  A    between atoms: C3'_96  and  O3'_97 
REMARK    6  A    between atoms: O3'_97  and  P_98 
REMARK    7  A    between atoms: P_98  and  O5'_101 
REMARK    8  A    between atoms: O5'_101  and  C5'_102 
REMARK    9  A    between atoms: C5'_102  and  C4'_103 
REMARK   10  A    between atoms: C1'_105  and  N1_106 
REMARK       I    between atoms: C4_111  and  N4_112 
REMARK   11  A    between atoms: C2'_116  and  O2'_117 
REMARK   12  A    between atoms: C3'_119  and  O3'_120 
REMARK   13  A    between atoms: O3'_120  and  P_121 
REMARK   14  A    between atoms: P_121  and  O5'_124 
REMARK   15  A    between atoms: O5'_124  and  C5'_125 
REMARK   16  A    between atoms: C5'_125  and  C4'_126 
REMARK   17  A    between atoms: C1'_128  and  N9_129 
REMARK       I    between atoms: C2_132  and  N2_133 
REMARK   18  A    between atoms: C2'_143  and  O2'_144 
REMARK   19  A    between atoms: C3'_146  and  O3'_147 
REMARK       I    between atoms: O3'_147  and  P_148 
REMARK       I    between atoms: P_148  and  O5'_151 
REMARK       I    between atoms: O5'_151  and  C5'_152 
REMARK       I    between atoms: C5'_152  and  C4'_153 
REMARK       I    between atoms: C1'_155  and  N1_156 
REMARK       I    between atoms: C2'_165  and  O2'_166 
REMARK       I    between atoms: C3'_168  and  O3'_169 
REMARK       I    between atoms: O3'_169  and  P_170 
REMARK       I    between atoms: P_170  and  O5'_173 
REMARK       I    between atoms: O5'_173  and  C5'_174 
REMARK       I    between atoms: C5'_174  and  C4'_175 
REMARK       I    between atoms: C1'_177  and  N1_178 
REMARK       I    between atoms: C2'_187  and  O2'_188 
REMARK       I    between atoms: C3'_190  and  O3'_191 
REMARK   20  A    between atoms: O3'_191  and  P_192 
REMARK   21  A    between atoms: P_192  and  O5'_195 
REMARK   22  A    between atoms: O5'_195  and  C5'_196 
REMARK       I    between atoms: C5'_196  and  C4'_197 
REMARK   23  A    between atoms: C1'_199  and  N9_200 
REMARK   24  A    between atoms: C2_203  and  N2_204 
REMARK       I    between atoms: C2'_214  and  O2'_215 
REMARK       I    between atoms: C3'_217  and  O3'_218 
REMARK       I    between atoms: O3'_218  and  P_219 
REMARK       I    between atoms: P_219  and  O5'_222 
REMARK       I    between atoms: O5'_222  and  C5'_223 
REMARK       I    between atoms: C5'_223  and  C4'_224 
REMARK       I    between atoms: C1'_226  and  N9_227 
REMARK       I    between atoms: C2_230  and  N2_231 
REMARK   25  A    between atoms: C2'_241  and  O2'_242 
REMARK   26  A    between atoms: C3'_244  and  O3'_245 
REMARK   27  A    between atoms: O3'_245  and  P_246 
REMARK   28  A    between atoms: P_246  and  O5'_249 
REMARK   29  A    between atoms: O5'_249  and  C5'_250 
REMARK   30  A    between atoms: C5'_250  and  C4'_251 
REMARK       I    between atoms: C1'_253  and  N1_254 
REMARK       I    between atoms: C2'_263  and  O2'_264 
REMARK       I    between atoms: C3'_266  and  O3'_267 
REMARK       I    between atoms: O3'_267  and  P_268 
REMARK       I    between atoms: P_268  and  O5'_271 
REMARK       I    between atoms: O5'_271  and  C5'_272 
REMARK       I    between atoms: C5'_272  and  C4'_273 
REMARK       I    between atoms: C1'_275  and  N1_276 
REMARK       I    between atoms: C4_281  and  N4_282 
REMARK   31  A    between atoms: C2'_286  and  O2'_287 
REMARK   32  A    between atoms: C3'_289  and  O3'_290 
REMARK   33  A    between atoms: O3'_290  and  P_291 
REMARK   34  A    between atoms: P_291  and  O5'_294 
REMARK   35  A    between atoms: O5'_294  and  C5'_295 
REMARK   36  A    between atoms: C5'_295  and  C4'_296 
REMARK   37  A    between atoms: C1'_298  and  N1_299 
REMARK       I    between atoms: C2'_308  and  O2'_309 
REMARK       I    between atoms: C3'_311  and  O3'_312 
REMARK       I    between atoms: O3'_312  and  P_313 
REMARK       I    between atoms: P_313  and  O5'_316 
REMARK       I    between atoms: O5'_316  and  C5'_317 
REMARK       I    between atoms: C5'_317  and  C4'_318 
REMARK       I    between atoms: C1'_320  and  N1_321 
REMARK       I    between atoms: C4_326  and  N4_327 
REMARK       I    between atoms: C2'_331  and  O2'_332 
REMARK       I    between atoms: C3'_334  and  O3'_335 
REMARK       I    between atoms: O3'_335  and  P_336 
REMARK       I    between atoms: P_336  and  O5'_339 
REMARK       I    between atoms: O5'_339  and  C5'_340 
REMARK       I    between atoms: C5'_340  and  C4'_341 
REMARK       I    between atoms: C1'_343  and  N9_344 
REMARK       I    between atoms: C2_347  and  N2_348 
REMARK       I    between atoms: C2'_358  and  O2'_359 
REMARK       I    between atoms: C3'_361  and  O3'_362 
REMARK       I    between atoms: O3'_362  and  P_363 
REMARK       I    between atoms: P_363  and  O5'_366 
REMARK       I    between atoms: O5'_366  and  C5'_367 
REMARK       I    between atoms: C5'_367  and  C4'_368 
REMARK       I    between atoms: C1'_370  and  N1_371 
REMARK       I    between atoms: C4_376  and  N4_377 
REMARK   38  A    between atoms: C2'_381  and  O2'_382 
REMARK   39  A    between atoms: C3'_384  and  O3'_385 
REMARK   40  A    between atoms: O3'_385  and  P_386 
REMARK   41  A    between atoms: P_386  and  O5'_389 
REMARK   42  A    between atoms: O5'_389  and  C5'_390 
REMARK   43  A    between atoms: C5'_390  and  C4'_391 
REMARK       I    between atoms: C1'_393  and  N1_394 
REMARK       I    between atoms: C2'_403  and  O2'_404 
REMARK   44  A    between atoms: C3'_406  and  O3'_407 
REMARK   45  A    between atoms: O3'_407  and  P_408 
REMARK   46  A    between atoms: P_408  and  O5'_411 
REMARK   47  A    between atoms: O5'_411  and  C5'_412 
REMARK       I    between atoms: C5'_412  and  C4'_413 
REMARK       I    between atoms: C1'_415  and  N1_416 
REMARK       I    between atoms: C2'_425  and  O2'_426 
REMARK       I    between atoms: C3'_428  and  O3'_429 
REMARK       I    between atoms: O3'_429  and  P_430 
REMARK       I    between atoms: P_430  and  O5'_433 
REMARK       I    between atoms: O5'_433  and  C5'_434 
REMARK       I    between atoms: C5'_434  and  C4'_435 
REMARK       I    between atoms: C1'_437  and  N1_438 
REMARK       I    between atoms: C2'_447  and  O2'_448 
REMARK       I    between atoms: C3'_450  and  O3'_451 
REMARK       I    between atoms: O3'_451  and  P_452 
REMARK       I    between atoms: P_452  and  O5'_455 
REMARK       I    between atoms: O5'_455  and  C5'_456 
REMARK       I    between atoms: C5'_456  and  C4'_457 
REMARK       I    between atoms: C1'_459  and  N9_460 
REMARK       I    between atoms: C2_463  and  N2_464 
REMARK       I    between atoms: C2'_474  and  O2'_475 
REMARK       I    between atoms: C3'_477  and  O3'_478 
REMARK       I    between atoms: O3'_478  and  P_479 
REMARK       I    between atoms: P_479  and  O5'_482 
REMARK       I    between atoms: O5'_482  and  C5'_483 
REMARK       I    between atoms: C5'_483  and  C4'_484 
REMARK       I    between atoms: C1'_486  and  N9_487 
REMARK       I    between atoms: C2_490  and  N2_491 
REMARK       I    between atoms: C2'_501  and  O2'_502 
REMARK       I    between atoms: C3'_504  and  O3'_505 
REMARK       I    between atoms: O3'_505  and  P_506 
REMARK       I    between atoms: P_506  and  O5'_509 
REMARK       I    between atoms: O5'_509  and  C5'_510 
REMARK       I    between atoms: C5'_510  and  C4'_511 
REMARK       I    between atoms: C1'_513  and  N9_514 
REMARK       I    between atoms: C2_517  and  N2_518 
REMARK       I    between atoms: C2'_528  and  O2'_529 
REMARK       I    between atoms: C3'_531  and  O3'_532 
REMARK       I    between atoms: O3'_532  and  P_533 
REMARK       I    between atoms: P_533  and  O5'_536 
REMARK       I    between atoms: O5'_536  and  C5'_537 
REMARK       I    between atoms: C5'_537  and  C4'_538 
REMARK       I    between atoms: C1'_540  and  N1_541 
REMARK       I    between atoms: C2'_550  and  O2'_551 
REMARK       I    between atoms: C3'_553  and  O3'_554 
REMARK       I    between atoms: O3'_554  and  P_555 
REMARK       I    between atoms: P_555  and  O5'_558 
REMARK       I    between atoms: O5'_558  and  C5'_559 
REMARK       I    between atoms: C5'_559  and  C4'_560 
REMARK       I    between atoms: C1'_562  and  N9_563 
REMARK       I    between atoms: C2_566  and  N2_567 
REMARK       I    between atoms: C2'_577  and  O2'_578 
REMARK       I    between atoms: C3'_580  and  O3'_581 
REMARK       I    between atoms: O3'_581  and  P_582 
REMARK       I    between atoms: P_582  and  O5'_585 
REMARK       I    between atoms: O5'_585  and  C5'_586 
REMARK   48  A    between atoms: C5'_586  and  C4'_587 
REMARK   49  A    between atoms: C1'_589  and  N1_590 
REMARK       I    between atoms: C4_595  and  N4_596 
REMARK   50  A    between atoms: C2'_600  and  O2'_601 
REMARK   51  A    between atoms: C3'_603  and  O3'_604 
REMARK   52  A    between atoms: O3'_604  and  P_605 
REMARK   53  A    between atoms: P_605  and  O5'_608 
REMARK   54  A    between atoms: O5'_608  and  C5'_609 
REMARK       I    between atoms: C5'_609  and  C4'_610 
REMARK       I    between atoms: C1'_612  and  N9_613 
REMARK       I    between atoms: C2_616  and  N2_617 
REMARK       I    between atoms: C2'_627  and  O2'_628 
REMARK       I    between atoms: C3'_630  and  O3'_631 
REMARK       I    between atoms: O3'_631  and  P_632 
REMARK       I    between atoms: P_632  and  O5'_635 
REMARK       I    between atoms: O5'_635  and  C5'_636 
REMARK       I    between atoms: C5'_636  and  C4'_637 
REMARK       I    between atoms: C1'_639  and  N9_640 
REMARK       I    between atoms: C6_645  and  N6_646 
REMARK       I    between atoms: C2'_652  and  O2'_653 
REMARK       I    between atoms: C3'_655  and  O3'_656 
REMARK       I    between atoms: O3'_656  and  P_657 
REMARK       I    between atoms: P_657  and  O5'_660 
REMARK       I    between atoms: O5'_660  and  C5'_661 
REMARK       I    between atoms: C5'_661  and  C4'_662 
REMARK       I    between atoms: C1'_664  and  N9_665 
REMARK   55  A    between atoms: C2_668  and  N2_669 
REMARK   56  A    between atoms: C2'_679  and  O2'_680 
REMARK   57  A    between atoms: C3'_682  and  O3'_683 
REMARK   58  A    between atoms: O3'_683  and  P_684 
REMARK   59  A    between atoms: P_684  and  O5'_687 
REMARK   60  A    between atoms: O5'_687  and  C5'_688 
REMARK   61  A    between atoms: C5'_688  and  C4'_689 
REMARK   62  A    between atoms: C1'_691  and  N9_692 
REMARK       I    between atoms: C6_697  and  N6_698 
REMARK       I    between atoms: C2'_704  and  O2'_705 
REMARK       I    between atoms: C3'_707  and  O3'_708 
REMARK       I    between atoms: O3'_708  and  P_709 
REMARK       I    between atoms: P_709  and  O5'_712 
REMARK       I    between atoms: O5'_712  and  C5'_713 
REMARK       I    between atoms: C5'_713  and  C4'_714 
REMARK       I    between atoms: C1'_716  and  N9_717 
REMARK       I    between atoms: C2_720  and  N2_721 
REMARK       I    between atoms: C2'_731  and  O2'_732 
REMARK       I    between atoms: C3'_734  and  O3'_735 
REMARK       I    between atoms: O3'_735  and  P_736 
REMARK       I    between atoms: P_736  and  O5'_739 
REMARK       I    between atoms: O5'_739  and  C5'_740 
REMARK       I    between atoms: C5'_740  and  C4'_741 
REMARK       I    between atoms: C1'_743  and  N9_744 
REMARK       I    between atoms: C2_747  and  N2_748 
REMARK       I    between atoms: C2'_758  and  O2'_759 
REMARK       I    between atoms: C3'_761  and  O3'_762 
REMARK       I    between atoms: O3'_762  and  P_763 
REMARK       I    between atoms: P_763  and  O5'_766 
REMARK       I    between atoms: O5'_766  and  C5'_767 
REMARK       I    between atoms: C5'_767  and  C4'_768 
REMARK       I    between atoms: C1'_770  and  N9_771 
REMARK       I    between atoms: C2_774  and  N2_775 
REMARK       I    between atoms: C2'_785  and  O2'_786 
REMARK       I    between atoms: C3'_788  and  O3'_789 
REMARK       I    between atoms: O3'_789  and  P_790 
REMARK       I    between atoms: P_790  and  O5'_793 
REMARK       I    between atoms: O5'_793  and  C5'_794 
REMARK       I    between atoms: C5'_794  and  C4'_795 
REMARK       I    between atoms: C1'_797  and  N1_798 
REMARK       I    between atoms: C2'_807  and  O2'_808 
REMARK       I    between atoms: C3'_810  and  O3'_811 
REMARK       I    between atoms: O3'_811  and  P_812 
REMARK       I    between atoms: P_812  and  O5'_815 
REMARK       I    between atoms: O5'_815  and  C5'_816 
REMARK       I    between atoms: C5'_816  and  C4'_817 
REMARK       I    between atoms: C1'_819  and  N1_820 
REMARK   63  A    between atoms: C2'_829  and  O2'_830 
REMARK   64  A    between atoms: C3'_832  and  O3'_833 
REMARK   65  A    between atoms: O3'_833  and  P_834 
REMARK   66  A    between atoms: P_834  and  O5'_837 
REMARK   67  A    between atoms: O5'_837  and  C5'_838 
REMARK   68  A    between atoms: C5'_838  and  C4'_839 
REMARK       I    between atoms: C1'_841  and  N1_842 
REMARK       I    between atoms: C4_847  and  N4_848 
REMARK       I    between atoms: C2'_852  and  O2'_853 
REMARK       I    between atoms: C3'_855  and  O3'_856 
REMARK       I    between atoms: O3'_856  and  P_857 
REMARK       I    between atoms: P_857  and  O5'_860 
REMARK       I    between atoms: O5'_860  and  C5'_861 
REMARK       I    between atoms: C5'_861  and  C4'_862 
REMARK       I    between atoms: C1'_864  and  N9_865 
REMARK       I    between atoms: C6_870  and  N6_871 
REMARK       I    between atoms: C2'_877  and  O2'_878 
REMARK       I    between atoms: C3'_880  and  O3'_881 
REMARK       I    between atoms: O3'_881  and  P_882 
REMARK       I    between atoms: P_882  and  O5'_885 
REMARK   69  A    between atoms: O5'_885  and  C5'_886 
REMARK   70  A    between atoms: C5'_886  and  C4'_887 
REMARK   71  A    between atoms: C1'_889  and  N9_890 
REMARK       I    between atoms: C6_895  and  N6_896 
REMARK   72  A    between atoms: C2'_902  and  O2'_903 
REMARK   73  A    between atoms: C3'_905  and  O3'_906 
REMARK   74  A    between atoms: O3'_906  and  P_907 
REMARK   75  A    between atoms: P_907  and  O5'_910 
REMARK   76  A    between atoms: O5'_910  and  C5'_911 
REMARK   77  A    between atoms: C5'_911  and  C4'_912 
REMARK   78  A    between atoms: C1'_914  and  N9_915 
REMARK       I    between atoms: C6_920  and  N6_921 
REMARK       I    between atoms: C2'_927  and  O2'_928 
REMARK   79  A    between atoms: C3'_930  and  O3'_931 
REMARK       I    between atoms: O3'_931  and  P_932 
REMARK       I    between atoms: P_932  and  O5'_935 
REMARK       I    between atoms: O5'_935  and  C5'_936 
REMARK       I    between atoms: C5'_936  and  C4'_937 
REMARK       I    between atoms: C1'_939  and  N1_940 
REMARK       I    between atoms: C2'_949  and  O2'_950 
REMARK       I    between atoms: C3'_952  and  O3'_953 
REMARK       I    between atoms: O3'_953  and  P_954 
REMARK       I    between atoms: P_954  and  O5'_957 
REMARK       I    between atoms: O5'_957  and  C5'_958 
REMARK       I    between atoms: C5'_958  and  C4'_959 
REMARK       I    between atoms: C1'_961  and  N1_962 
REMARK       I    between atoms: C4_967  and  N4_968 
REMARK       I    between atoms: C2'_972  and  O2'_973 
REMARK       I    between atoms: C3'_975  and  O3'_976 
REMARK       I    between atoms: O3'_976  and  P_977 
REMARK       I    between atoms: P_977  and  O5'_980 
REMARK       I    between atoms: O5'_980  and  C5'_981 
REMARK       I    between atoms: C5'_981  and  C4'_982 
REMARK       I    between atoms: C1'_984  and  N1_985 
REMARK       I    between atoms: C4_990  and  N4_991 
REMARK       I    between atoms: C2'_995  and  O2'_996 
REMARK       I    between atoms: C3'_998  and  O3'_999 
REMARK       I    between atoms: O3'_999  and  P_1000 
REMARK       I    between atoms: P_1000  and  O5'_1003 
REMARK       I    between atoms: O5'_1003  and  C5'_1004 
REMARK       I    between atoms: C5'_1004  and  C4'_1005 
REMARK   80  A    between atoms: C1'_1007  and  N1_1008 
REMARK       I    between atoms: C4_1013  and  N4_1014 
REMARK   81  A    between atoms: C2'_1018  and  O2'_1019 
REMARK   82  A    between atoms: C3'_1021  and  O3'_1022 
REMARK   83  A    between atoms: O3'_1022  and  P_1023 
REMARK   84  A    between atoms: P_1023  and  O5'_1026 
REMARK   85  A    between atoms: O5'_1026  and  C5'_1027 
REMARK   86  A    between atoms: C5'_1027  and  C4'_1028 
REMARK   87  A    between atoms: C1'_1030  and  N9_1031 
REMARK       I    between atoms: C2_1034  and  N2_1035 
REMARK       I    between atoms: C2'_1045  and  O2'_1046 
REMARK       I    between atoms: C3'_1048  and  O3'_1049 
REMARK       I    between atoms: O3'_1049  and  P_1050 
REMARK       I    between atoms: P_1050  and  O5'_1053 
REMARK       I    between atoms: O5'_1053  and  C5'_1054 
REMARK       I    between atoms: C5'_1054  and  C4'_1055 
REMARK       I    between atoms: C1'_1057  and  N9_1058 
REMARK       I    between atoms: C2_1061  and  N2_1062 
REMARK   88  A    between atoms: C2'_1072  and  O2'_1073 
REMARK   89  A    between atoms: C3'_1075  and  O3'_1076 
REMARK   90  A    between atoms: O3'_1076  and  P_1077 
REMARK       I    between atoms: P_1077  and  O5'_1080 
REMARK       I    between atoms: O5'_1080  and  C5'_1081 
REMARK       I    between atoms: C5'_1081  and  C4'_1082 
REMARK       I    between atoms: C1'_1084  and  N9_1085 
REMARK       I    between atoms: C6_1090  and  N6_1091 
REMARK       I    between atoms: C2'_1097  and  O2'_1098 
REMARK       I    between atoms: C3'_1100  and  O3'_1101 
REMARK   91  A    between atoms: O3'_1101  and  P_1102 
REMARK   92  A    between atoms: P_1102  and  O5'_1105 
REMARK   93  A    between atoms: O5'_1105  and  C5'_1106 
REMARK   94  A    between atoms: C5'_1106  and  C4'_1107 
REMARK   95  A    between atoms: C1'_1109  and  N1_1110 
REMARK       I    between atoms: C4_1115  and  N4_1116 
REMARK   96  A    between atoms: C2'_1120  and  O2'_1121 
REMARK   97  A    between atoms: C3'_1123  and  O3'_1124 
REMARK   98  A    between atoms: O3'_1124  and  P_1125 
REMARK   99  A    between atoms: P_1125  and  O5'_1128 
REMARK  100  A    between atoms: O5'_1128  and  C5'_1129 
REMARK  101  A    between atoms: C5'_1129  and  C4'_1130 
REMARK       I    between atoms: C1'_1132  and  N9_1133 
REMARK       I    between atoms: C2_1136  and  N2_1137 
REMARK       I    between atoms: C2'_1147  and  O2'_1148 
REMARK       I    between atoms: C3'_1150  and  O3'_1151 
REMARK       I    between atoms: O3'_1151  and  P_1152 
REMARK       I    between atoms: P_1152  and  O5'_1155 
REMARK       I    between atoms: O5'_1155  and  C5'_1156 
REMARK       I    between atoms: C5'_1156  and  C4'_1157 
REMARK       I    between atoms: C1'_1159  and  N9_1160 
REMARK       I    between atoms: C6_1165  and  N6_1166 
REMARK       I    between atoms: C2'_1172  and  O2'_1173 
REMARK       I    between atoms: C3'_1175  and  O3'_1176 
REMARK       I    between atoms: O3'_1176  and  P_1177 
REMARK       I    between atoms: P_1177  and  O5'_1180 
REMARK       I    between atoms: O5'_1180  and  C5'_1181 
REMARK       I    between atoms: C5'_1181  and  C4'_1182 
REMARK       I    between atoms: C1'_1184  and  N9_1185 
REMARK       I    between atoms: C2_1188  and  N2_1189 
REMARK       I    between atoms: C2'_1199  and  O2'_1200 
REMARK       I    between atoms: C3'_1202  and  O3'_1203 
REMARK       I    between atoms: O3'_1203  and  P_1204 
REMARK       I    between atoms: P_1204  and  O5'_1207 
REMARK       I    between atoms: O5'_1207  and  C5'_1208 
REMARK       I    between atoms: C5'_1208  and  C4'_1209 
REMARK       I    between atoms: C1'_1211  and  N1_1212 
REMARK       I    between atoms: C4_1217  and  N4_1218 
REMARK       I    between atoms: C2'_1222  and  O2'_1223 
REMARK       I    between atoms: C3'_1225  and  O3'_1226 
REMARK       I    between atoms: O3'_1226  and  P_1227 
REMARK       I    between atoms: P_1227  and  O5'_1230 
REMARK       I    between atoms: O5'_1230  and  C5'_1231 
REMARK       I    between atoms: C5'_1231  and  C4'_1232 
REMARK       I    between atoms: C1'_1234  and  N1_1235 
REMARK       I    between atoms: C4_1240  and  N4_1241 
REMARK       I    between atoms: C2'_1245  and  O2'_1246 
REMARK       I    between atoms: C3'_1248  and  O3'_1249 
REMARK       I    between atoms: O3'_1249  and  P_1250 
REMARK       I    between atoms: P_1250  and  O5'_1253 
REMARK       I    between atoms: O5'_1253  and  C5'_1254 
REMARK       I    between atoms: C5'_1254  and  C4'_1255 
REMARK       I    between atoms: C1'_1257  and  N1_1258 
REMARK       I    between atoms: C4_1263  and  N4_1264 
REMARK       I    between atoms: C2'_1268  and  O2'_1269 
REMARK       I    between atoms: C3'_1271  and  O3'_1272 
ROOT
ATOM      1 'HO5   G A   1     -43.096   7.385  50.896  1.00  0.00     0.209 HD
ATOM      2  O5'   G A   1     -43.921   7.818  51.127  1.00  0.00    -0.398 OA
ATOM      3  C5'   G A   1     -43.600   9.157  51.516  1.00  0.00     0.198 C 
ATOM      4  C4'   G A   1     -42.175   9.498  51.146  1.00  0.00     0.180 C 
ATOM      5  O4'   G A   1     -41.276   8.693  51.960  1.00  0.00    -0.353 OA
ATOM      6  C1'   G A   1     -40.234   8.176  51.154  1.00  0.00     0.262 C 
ATOM      7  N9    G A   1     -40.416   6.732  51.036  1.00  0.00    -0.293 N 
ATOM      8  C4    G A   1     -39.646   5.869  50.293  1.00  0.00     0.187 A 
ATOM      9  N3    G A   1     -38.578   6.206  49.542  1.00  0.00    -0.044 NA
ATOM     10  C2    G A   1     -38.046   5.157  48.942  1.00  0.00     0.703 A 
ATOM     11  N2    G A   1     -36.978   5.313  48.156  1.00  0.00    -0.233 N 
ATOM     12  H21   G A   1     -36.587   6.234  48.029  1.00  0.00     0.174 HD
ATOM     13  H22   G A   1     -36.566   4.515  47.692  1.00  0.00     0.174 HD
ATOM     14  N1    G A   1     -38.523   3.878  49.066  1.00  0.00    -0.153 N 
ATOM     15  H1    G A   1     -38.041   3.150  48.563  1.00  0.00     0.187 HD
ATOM     16  C6    G A   1     -39.620   3.505  49.833  1.00  0.00     0.292 A 
ATOM     17  O6    G A   1     -39.964   2.317  49.876  1.00  0.00    -0.265 OA
ATOM     18  C5    G A   1     -40.204   4.622  50.486  1.00  0.00     0.173 A 
ATOM     19  N7    G A   1     -41.300   4.698  51.335  1.00  0.00    -0.234 NA
ATOM     20  C8    G A   1     -41.386   5.965  51.635  1.00  0.00     0.214 A 
ATOM     21  C2'   G A   1     -40.292   8.914  49.819  1.00  0.00     0.199 C 
ATOM     22  C3'   G A   1     -41.786   9.189  49.706  1.00  0.00     0.198 C 
ENDROOT
BRANCH  22  23
ATOM     23  O3'   G A   1     -42.076  10.283  48.840  1.00  0.00    -0.279 OA
BRANCH  23  24
ATOM     24  P     G A   2     -42.324  11.748  49.456  1.00  0.00     0.408 P 
ATOM     25  OP2   G A   2     -43.788  11.972  49.565  1.00  0.00    -0.624 OA
ATOM     26  OP1   G A   2     -41.472  11.865  50.667  1.00  0.00    -0.624 OA
BRANCH  24  27
ATOM     27  O5'   G A   2     -41.749  12.736  48.346  1.00  0.00    -0.287 OA
ATOM     28  C5'   G A   2     -42.409  13.963  48.042  1.00  0.00     0.216 C 
ATOM     29  C4'   G A   2     -41.707  14.667  46.904  1.00  0.00     0.180 C 
ATOM     30  C3'   G A   2     -41.407  13.810  45.683  1.00  0.00     0.198 C 
ATOM     31  O4'   G A   2     -40.398  15.110  47.351  1.00  0.00    -0.353 OA
ATOM     32  C2'   G A   2     -40.246  14.559  45.042  1.00  0.00     0.199 C 
ATOM     33  O3'   G A   2     -42.537  13.708  44.819  1.00  0.00    -0.279 OA
ATOM     34  O2'   G A   2     -40.701  15.698  44.335  1.00  0.00    -0.388 OA
ATOM     35  C1'   G A   2     -39.476  15.025  46.277  1.00  0.00     0.262 C 
ATOM     36 'HO2   G A   2     -41.620  15.540  44.119  1.00  0.00     0.210 HD
ATOM     37  N9    G A   2     -38.397  14.122  46.666  1.00  0.00    -0.293 N 
ATOM     38  C8    G A   2     -38.357  13.297  47.764  1.00  0.00     0.214 A 
ATOM     39  C4    G A   2     -37.212  13.932  45.996  1.00  0.00     0.187 A 
ATOM     40  N7    G A   2     -37.253  12.607  47.850  1.00  0.00    -0.234 NA
ATOM     41  C5    G A   2     -36.518  12.998  46.738  1.00  0.00     0.173 A 
ATOM     42  C6    G A   2     -35.234  12.591  46.292  1.00  0.00     0.292 A 
ATOM     43  O6    G A   2     -34.460  11.777  46.808  1.00  0.00    -0.265 OA
ATOM     44  N1    G A   2     -34.873  13.237  45.115  1.00  0.00    -0.153 N 
ATOM     45  H1    G A   2     -33.975  13.010  44.718  1.00  0.00     0.187 HD
ATOM     46  C2    G A   2     -35.644  14.156  44.453  1.00  0.00     0.703 A 
ATOM     47  N2    G A   2     -35.122  14.666  43.335  1.00  0.00    -0.233 N 
ATOM     48  N3    G A   2     -36.840  14.547  44.855  1.00  0.00    -0.044 NA
ATOM     49  H22   G A   2     -34.208  14.373  43.019  1.00  0.00     0.174 HD
ATOM     50  H21   G A   2     -35.649  15.348  42.808  1.00  0.00     0.174 HD
ATOM     51  P     C A   3     -42.704  12.421  43.869  1.00  0.00     0.408 P 
ATOM     52  OP2   C A   3     -42.542  11.199  44.697  1.00  0.00    -0.624 OA
ATOM     53  O5'   C A   3     -41.463  12.514  42.873  1.00  0.00    -0.287 OA
ATOM     54  OP1   C A   3     -43.946  12.613  43.079  1.00  0.00    -0.624 OA
ATOM     55  C5'   C A   3     -41.323  13.614  41.976  1.00  0.00     0.216 C 
ATOM     56  C4'   C A   3     -40.123  13.410  41.080  1.00  0.00     0.180 C 
ATOM     57  C3'   C A   3     -39.931  12.003  40.536  1.00  0.00     0.198 C 
ATOM     58  O4'   C A   3     -38.908  13.649  41.842  1.00  0.00    -0.353 OA
ATOM     59  O3'   C A   3     -40.750  11.749  39.398  1.00  0.00    -0.279 OA
ATOM     60  C2'   C A   3     -38.445  11.997  40.199  1.00  0.00     0.199 C 
ATOM     61  P     T A   4     -41.116  10.234  39.002  1.00  0.00     0.408 P 
ATOM     62  O5'   T A   4     -39.723   9.607  38.549  1.00  0.00    -0.287 OA
ATOM     63  OP1   T A   4     -42.009  10.289  37.817  1.00  0.00    -0.624 OA
ATOM     64  OP2   T A   4     -41.566   9.524  40.228  1.00  0.00    -0.624 OA
ATOM     65  C5'   T A   4     -39.141   9.947  37.291  1.00  0.00     0.216 C 
ATOM     66  C4'   T A   4     -37.698   9.496  37.237  1.00  0.00     0.180 C 
ATOM     67  C3'   T A   4     -37.474   8.000  37.098  1.00  0.00     0.198 C 
ATOM     68  O4'   T A   4     -37.034   9.809  38.488  1.00  0.00    -0.353 OA
ATOM     69  C2'   T A   4     -36.031   7.851  37.572  1.00  0.00     0.199 C 
ATOM     70  O2'   T A   4     -35.119   8.236  36.561  1.00  0.00    -0.388 OA
ATOM     71  C1'   T A   4     -35.975   8.888  38.698  1.00  0.00     0.264 C 
ATOM     72 'HO2   T A   4     -35.433   7.854  35.742  1.00  0.00     0.210 HD
ATOM     73  N1    T A   4     -36.120   8.300  40.038  1.00  0.00    -0.280 N 
ATOM     74  C2    T A   4     -35.041   7.604  40.552  1.00  0.00     0.331 A 
ATOM     75  C6    T A   4     -37.286   8.433  40.759  1.00  0.00     0.104 A 
ATOM     76  O2    T A   4     -33.992   7.466  39.949  1.00  0.00    -0.246 OA
ATOM     77  N3    T A   4     -35.233   7.074  41.801  1.00  0.00    -0.275 N 
ATOM     78  H3    T A   4     -34.458   6.560  42.192  1.00  0.00     0.173 HD
ATOM     79  C4    T A   4     -36.367   7.167  42.574  1.00  0.00     0.250 A 
ATOM     80  C5    T A   4     -37.437   7.903  41.977  1.00  0.00     0.092 A 
ATOM     81  O4    T A   4     -36.387   6.630  43.682  1.00  0.00    -0.268 OA
ATOM     82  C1'   C A   3     -37.880  12.788  41.378  1.00  0.00     0.264 C 
ATOM     83  O2'   C A   3     -38.185  12.711  39.006  1.00  0.00    -0.388 OA
ATOM     84  N1    C A   3     -37.441  11.936  42.494  1.00  0.00    -0.278 N 
ATOM     85  C2    C A   3     -36.169  11.364  42.441  1.00  0.00     0.352 A 
ATOM     86  C6    C A   3     -38.258  11.701  43.566  1.00  0.00     0.102 A 
ATOM     87  N3    C A   3     -35.754  10.574  43.456  1.00  0.00    -0.177 NA
ATOM     88  O2    C A   3     -35.448  11.594  41.461  1.00  0.00    -0.244 OA
ATOM     89  C4    C A   3     -36.558  10.349  44.496  1.00  0.00     0.128 A 
ATOM     90  N4    C A   3     -36.104   9.564  45.471  1.00  0.00    -0.384 N 
ATOM     91  C5    C A   3     -37.860  10.921  44.581  1.00  0.00     0.067 A 
ATOM     92  H41   C A   3     -36.678   9.368  46.278  1.00  0.00     0.157 HD
ATOM     93  H42   C A   3     -35.178   9.165  45.400  1.00  0.00     0.157 HD
ATOM     94 'HO2   C A   3     -38.895  12.507  38.399  1.00  0.00     0.210 HD
BRANCH  67  95
ATOM     95  O3'   T A   4     -37.659   7.556  35.756  1.00  0.00    -0.279 OA
BRANCH  95  96
ATOM     96  P     C A   5     -38.584   6.275  35.458  1.00  0.00     0.408 P 
ATOM     97  OP1   C A   5     -37.925   5.493  34.381  1.00  0.00    -0.624 OA
ATOM     98  OP2   C A   5     -39.984   6.736  35.279  1.00  0.00    -0.624 OA
BRANCH  96  99
ATOM     99  O5'   C A   5     -38.512   5.425  36.805  1.00  0.00    -0.287 OA
BRANCH  99 100
ATOM    100  C5'   C A   5     -37.464   4.483  37.023  1.00  0.00     0.216 C 
BRANCH 100 101
ATOM    101  C4'   C A   5     -37.016   4.522  38.466  1.00  0.00     0.180 C 
ATOM    102  C3'   C A   5     -36.768   3.172  39.120  1.00  0.00     0.198 C 
ATOM    103  C2'   C A   5     -36.882   3.504  40.605  1.00  0.00     0.199 C 
ATOM    104  C1'   C A   5     -37.976   4.576  40.598  1.00  0.00     0.264 C 
ATOM    105  O4'   C A   5     -38.065   5.099  39.284  1.00  0.00    -0.353 OA
BRANCH 102 106
ATOM    106  O3'   C A   5     -35.491   2.643  38.777  1.00  0.00    -0.279 OA
BRANCH 106 107
ATOM    107  P     G A   6     -35.225   1.060  38.890  1.00  0.00     0.408 P 
ATOM    108  OP1   G A   6     -36.552   0.391  38.888  1.00  0.00    -0.624 OA
ATOM    109  OP2   G A   6     -34.283   0.820  40.013  1.00  0.00    -0.624 OA
BRANCH 107 110
ATOM    110  O5'   G A   6     -34.480   0.693  37.529  1.00  0.00    -0.287 OA
BRANCH 110 111
ATOM    111  C5'   G A   6     -34.554   1.555  36.395  1.00  0.00     0.216 C 
BRANCH 111 112
ATOM    112  C4'   G A   6     -33.281   1.468  35.585  1.00  0.00     0.180 C 
ATOM    113  C3'   G A   6     -32.990   0.114  34.954  1.00  0.00     0.198 C 
ATOM    114  C2'   G A   6     -31.481   0.172  34.757  1.00  0.00     0.199 C 
ATOM    115  C1'   G A   6     -31.045   0.909  36.023  1.00  0.00     0.262 C 
ATOM    116  O4'   G A   6     -32.139   1.700  36.455  1.00  0.00    -0.353 OA
BRANCH 113 117
ATOM    117  O3'   G A   6     -33.696  -0.058  33.729  1.00  0.00    -0.279 OA
ATOM    118  P     T A   7     -33.247   0.769  32.423  1.00  0.00     0.408 P 
ATOM    119  OP1   T A   7     -34.091   0.305  31.292  1.00  0.00    -0.624 OA
ATOM    120  OP2   T A   7     -31.768   0.707  32.308  1.00  0.00    -0.624 OA
ATOM    121  O5'   T A   7     -33.653   2.273  32.759  1.00  0.00    -0.287 OA
ATOM    122  C5'   T A   7     -35.024   2.654  32.885  1.00  0.00     0.216 C 
ATOM    123  C4'   T A   7     -35.128   4.036  33.487  1.00  0.00     0.180 C 
ATOM    124  C3'   T A   7     -34.511   5.157  32.665  1.00  0.00     0.198 C 
ATOM    125  O4'   T A   7     -34.392   4.069  34.734  1.00  0.00    -0.353 OA
ATOM    126  O3'   T A   7     -35.412   5.622  31.663  1.00  0.00    -0.279 OA
ATOM    127  C2'   T A   7     -34.211   6.221  33.717  1.00  0.00     0.199 C 
ATOM    128  P     T A   8     -34.856   6.484  30.423  1.00  0.00     0.408 P 
ATOM    129  OP2   T A   8     -33.400   6.224  30.286  1.00  0.00    -0.624 OA
ATOM    130  OP1   T A   8     -35.758   6.233  29.271  1.00  0.00    -0.624 OA
ATOM    131  O5'   T A   8     -35.049   7.996  30.888  1.00  0.00    -0.287 OA
ATOM    132  C5'   T A   8     -36.348   8.576  30.998  1.00  0.00     0.216 C 
ATOM    133  C4'   T A   8     -36.233  10.063  31.243  1.00  0.00     0.180 C 
ATOM    134  C3'   T A   8     -35.314  10.808  30.281  1.00  0.00     0.198 C 
ATOM    135  O4'   T A   8     -35.652  10.274  32.561  1.00  0.00    -0.353 OA
ATOM    136  C2'   T A   8     -34.798  11.960  31.134  1.00  0.00     0.199 C 
ATOM    137  O3'   T A   8     -36.017  11.264  29.129  1.00  0.00    -0.279 OA
ATOM    138  O2'   T A   8     -35.763  12.990  31.236  1.00  0.00    -0.388 OA
ATOM    139  C1'   T A   8     -34.657  11.279  32.493  1.00  0.00     0.264 C 
ATOM    140 'HO2   T A   8     -36.394  12.844  30.532  1.00  0.00     0.210 HD
ATOM    141  N1    T A   8     -33.345  10.650  32.706  1.00  0.00    -0.280 N 
ATOM    142  C2    T A   8     -32.354  11.407  33.304  1.00  0.00     0.331 A 
ATOM    143  C6    T A   8     -33.109   9.351  32.322  1.00  0.00     0.104 A 
ATOM    144  O2    T A   8     -32.524  12.559  33.661  1.00  0.00    -0.246 OA
ATOM    145  N3    T A   8     -31.155  10.765  33.470  1.00  0.00    -0.275 N 
ATOM    146  H3    T A   8     -30.416  11.298  33.899  1.00  0.00     0.173 HD
ATOM    147  C4    T A   8     -30.851   9.471  33.107  1.00  0.00     0.250 A 
ATOM    148  C5    T A   8     -31.926   8.757  32.499  1.00  0.00     0.092 A 
ATOM    149  O4    T A   8     -29.723   9.031  33.328  1.00  0.00    -0.268 OA
ATOM    150  O2'   T A   7     -35.365   6.981  34.018  1.00  0.00    -0.388 OA
ATOM    151  C1'   T A   7     -33.859   5.366  34.936  1.00  0.00     0.264 C 
ATOM    152 'HO2   T A   7     -35.937   6.944  33.250  1.00  0.00     0.210 HD
ATOM    153  N1    T A   7     -32.414   5.241  35.172  1.00  0.00    -0.280 N 
ATOM    154  C6    T A   7     -31.730   4.089  34.851  1.00  0.00     0.104 A 
ATOM    155  C2    T A   7     -31.760   6.322  35.731  1.00  0.00     0.331 A 
ATOM    156  C5    T A   7     -30.419   3.953  35.066  1.00  0.00     0.092 A 
ATOM    157  C4    T A   7     -29.673   5.027  35.643  1.00  0.00     0.250 A 
ATOM    158  N3    T A   7     -30.416   6.147  35.934  1.00  0.00    -0.275 N 
ATOM    159  O4    T A   7     -28.468   5.020  35.890  1.00  0.00    -0.268 OA
ATOM    160  H3    T A   7     -29.923   6.929  36.337  1.00  0.00     0.173 HD
ATOM    161  O2    T A   7     -32.325   7.360  36.025  1.00  0.00    -0.246 OA
BRANCH 137 162
ATOM    162  P     G A   9     -35.274  11.297  27.702  1.00  0.00     0.408 P 
ATOM    163  OP2   G A   9     -35.612  10.047  26.975  1.00  0.00    -0.624 OA
ATOM    164  OP1   G A   9     -35.575  12.611  27.079  1.00  0.00    -0.624 OA
BRANCH 162 165
ATOM    165  O5'   G A   9     -33.724  11.259  28.068  1.00  0.00    -0.287 OA
BRANCH 165 166
ATOM    166  C5'   G A   9     -32.936  12.449  28.057  1.00  0.00     0.216 C 
ATOM    167  C4'   G A   9     -31.524  12.138  27.613  1.00  0.00     0.180 C 
ATOM    168  C3'   G A   9     -31.383  11.591  26.199  1.00  0.00     0.198 C 
ATOM    169  O4'   G A   9     -30.983  11.090  28.464  1.00  0.00    -0.353 OA
ATOM    170  O3'   G A   9     -31.309  12.639  25.235  1.00  0.00    -0.279 OA
ATOM    171  C2'   G A   9     -30.087  10.791  26.282  1.00  0.00     0.199 C 
ATOM    172  P     G A  10     -31.760  12.361  23.714  1.00  0.00     0.408 P 
ATOM    173  OP1   G A  10     -31.642  13.647  22.981  1.00  0.00    -0.624 OA
ATOM    174  OP2   G A  10     -33.061  11.644  23.731  1.00  0.00    -0.624 OA
ATOM    175  O5'   G A  10     -30.648  11.368  23.151  1.00  0.00    -0.287 OA
ATOM    176  C5'   G A  10     -29.270  11.744  23.122  1.00  0.00     0.216 C 
ATOM    177  C4'   G A  10     -28.421  10.580  22.665  1.00  0.00     0.180 C 
ATOM    178  O4'   G A  10     -28.827   9.389  23.402  1.00  0.00    -0.353 OA
ATOM    179  C3'   G A  10     -28.554  10.221  21.185  1.00  0.00     0.198 C 
ATOM    180  C1'   G A  10     -29.144   8.359  22.491  1.00  0.00     0.262 C 
ATOM    181  C2'   G A  10     -29.541   9.058  21.196  1.00  0.00     0.199 C 
ATOM    182  N9    G A  10     -30.190   7.524  23.073  1.00  0.00    -0.293 N 
ATOM    183  C8    G A  10     -31.225   7.928  23.880  1.00  0.00     0.214 A 
ATOM    184  C4    G A  10     -30.333   6.168  22.910  1.00  0.00     0.187 A 
ATOM    185  N7    G A  10     -32.011   6.949  24.238  1.00  0.00    -0.234 NA
ATOM    186  C5    G A  10     -31.459   5.829  23.630  1.00  0.00     0.173 A 
ATOM    187  C6    G A  10     -31.873   4.470  23.651  1.00  0.00     0.292 A 
ATOM    188  O6    G A  10     -32.842   3.965  24.231  1.00  0.00    -0.265 OA
ATOM    189  N1    G A  10     -31.026   3.667  22.897  1.00  0.00    -0.153 N 
ATOM    190  H1    G A  10     -31.241   2.683  22.849  1.00  0.00     0.187 HD
ATOM    191  C2    G A  10     -29.922   4.110  22.216  1.00  0.00     0.703 A 
ATOM    192  N3    G A  10     -29.524   5.368  22.187  1.00  0.00    -0.044 NA
ATOM    193  N2    G A  10     -29.227   3.182  21.552  1.00  0.00    -0.233 N 
ATOM    194  H22   G A  10     -29.527   2.216  21.564  1.00  0.00     0.174 HD
ATOM    195  H21   G A  10     -28.404   3.451  21.034  1.00  0.00     0.174 HD
ATOM    196  O2'   G A   9     -28.956  11.640  26.225  1.00  0.00    -0.388 OA
ATOM    197  C1'   G A   9     -30.189  10.207  27.692  1.00  0.00     0.262 C 
ATOM    198 'HO2   G A   9     -29.266  12.489  25.911  1.00  0.00     0.210 HD
BRANCH 181 199
ATOM    199  O2'   G A  10     -29.310   8.179  20.110  1.00  0.00    -0.388 OA
ATOM    200 'HO2   G A  10     -29.748   7.354  20.324  1.00  0.00     0.210 HD
ENDBRANCH 181 199
BRANCH 179 201
ATOM    201  O3'   G A  10     -27.296   9.848  20.628  1.00  0.00    -0.279 OA
BRANCH 201 202
ATOM    202  P     T A  11     -25.935  10.296  21.357  1.00  0.00     0.408 P 
ATOM    203  OP2   T A  11     -26.149  11.633  21.967  1.00  0.00    -0.624 OA
ATOM    204  OP1   T A  11     -25.488   9.167  22.210  1.00  0.00    -0.624 OA
BRANCH 202 205
ATOM    205  O5'   T A  11     -24.894  10.463  20.162  1.00  0.00    -0.287 OA
BRANCH 205 206
ATOM    206  C5'   T A  11     -24.678  11.728  19.537  1.00  0.00     0.216 C 
BRANCH 206 207
ATOM    207  C4'   T A  11     -23.453  11.669  18.654  1.00  0.00     0.180 C 
ATOM    208  O4'   T A  11     -23.438  12.843  17.788  1.00  0.00    -0.353 OA
ATOM    209  C1'   T A  11     -22.142  13.415  17.779  1.00  0.00     0.264 C 
ATOM    210  C2'   T A  11     -21.202  12.363  18.363  1.00  0.00     0.199 C 
ATOM    211  N1    T A  11     -22.178  14.669  18.547  1.00  0.00    -0.280 N 
ATOM    212  O2'   T A  11     -20.840  11.452  17.342  1.00  0.00    -0.388 OA
ATOM    213  C3'   T A  11     -22.116  11.708  19.388  1.00  0.00     0.198 C 
ATOM    214 'HO2   T A  11     -20.797  10.586  17.749  1.00  0.00     0.210 HD
ATOM    215  O3'   T A  11     -21.679  10.404  19.756  1.00  0.00    -0.279 OA
ATOM    216  P     C A  12     -20.929  10.178  21.162  1.00  0.00     0.408 P 
ATOM    217  O5'   C A  12     -19.490  10.827  20.939  1.00  0.00    -0.287 OA
ATOM    218  OP2   C A  12     -21.634  10.968  22.204  1.00  0.00    -0.624 OA
ATOM    219  OP1   C A  12     -20.756   8.715  21.343  1.00  0.00    -0.624 OA
ATOM    220  C5'   C A  12     -18.517  10.191  20.112  1.00  0.00     0.216 C 
ATOM    221  C4'   C A  12     -17.310  11.085  19.942  1.00  0.00     0.180 C 
ATOM    222  O4'   C A  12     -17.741  12.366  19.405  1.00  0.00    -0.353 OA
ATOM    223  C3'   C A  12     -16.574  11.443  21.224  1.00  0.00     0.198 C 
ATOM    224  C1'   C A  12     -16.985  13.409  19.996  1.00  0.00     0.264 C 
ATOM    225  C2'   C A  12     -15.902  12.759  20.855  1.00  0.00     0.199 C 
ATOM    226  N1    C A  12     -17.900  14.276  20.759  1.00  0.00    -0.278 N 
ATOM    227  C6    C A  12     -19.180  13.878  21.030  1.00  0.00     0.102 A 
ATOM    228  C2    C A  12     -17.438  15.519  21.205  1.00  0.00     0.352 A 
ATOM    229  C5    C A  12     -20.016  14.664  21.720  1.00  0.00     0.067 A 
ATOM    230  C4    C A  12     -19.519  15.926  22.159  1.00  0.00     0.128 A 
ATOM    231  N3    C A  12     -18.271  16.322  21.903  1.00  0.00    -0.177 NA
ATOM    232  N4    C A  12     -20.304  16.752  22.848  1.00  0.00    -0.384 N 
ATOM    233  H42   C A  12     -19.946  17.645  23.155  1.00  0.00     0.157 HD
ATOM    234  H41   C A  12     -21.256  16.490  23.062  1.00  0.00     0.157 HD
ATOM    235  O2    C A  12     -16.272  15.855  20.950  1.00  0.00    -0.244 OA
ATOM    236  C6    T A  11     -23.320  15.074  19.202  1.00  0.00     0.104 A 
ATOM    237  C2    T A  11     -21.024  15.430  18.594  1.00  0.00     0.331 A 
ATOM    238  C5    T A  11     -23.371  16.198  19.921  1.00  0.00     0.092 A 
ATOM    239  C4    T A  11     -22.217  17.031  20.027  1.00  0.00     0.250 A 
ATOM    240  N3    T A  11     -21.116  16.575  19.340  1.00  0.00    -0.275 N 
ATOM    241  O4    T A  11     -22.131  18.067  20.685  1.00  0.00    -0.268 OA
ATOM    242  H3    T A  11     -20.285  17.146  19.392  1.00  0.00     0.173 HD
ATOM    243  O2    T A  11     -19.999  15.114  18.020  1.00  0.00    -0.246 OA
BRANCH 225 244
ATOM    244  O2'   C A  12     -14.755  12.545  20.054  1.00  0.00    -0.388 OA
ATOM    245 'HO2   C A  12     -14.188  13.307  20.169  1.00  0.00     0.210 HD
ENDBRANCH 225 244
BRANCH 223 246
ATOM    246  O3'   C A  12     -15.632  10.438  21.594  1.00  0.00    -0.279 OA
BRANCH 246 247
ATOM    247  P     T A  13     -15.781   9.684  23.008  1.00  0.00     0.408 P 
ATOM    248  OP2   T A  13     -14.529   8.930  23.274  1.00  0.00    -0.624 OA
ATOM    249  OP1   T A  13     -16.259  10.684  23.995  1.00  0.00    -0.624 OA
BRANCH 247 250
ATOM    250  O5'   T A  13     -16.949   8.628  22.763  1.00  0.00    -0.287 OA
BRANCH 250 251
ATOM    251  C5'   T A  13     -18.111   8.612  23.590  1.00  0.00     0.216 C 
BRANCH 251 252
ATOM    252  C4'   T A  13     -17.760   8.127  24.977  1.00  0.00     0.180 C 
ATOM    253  O4'   T A  13     -18.300   9.057  25.957  1.00  0.00    -0.353 OA
ATOM    254  C1'   T A  13     -18.790   8.339  27.079  1.00  0.00     0.264 C 
ATOM    255  C2'   T A  13     -18.378   6.880  26.892  1.00  0.00     0.199 C 
ATOM    256  O2'   T A  13     -17.085   6.698  27.439  1.00  0.00    -0.388 OA
ATOM    257  C3'   T A  13     -18.353   6.781  25.374  1.00  0.00     0.198 C 
ATOM    258 'HO2   T A  13     -16.567   6.241  26.776  1.00  0.00     0.210 HD
ATOM    259  O3'   T A  13     -17.561   5.692  24.910  1.00  0.00    -0.279 OA
ATOM    260  P     C A  14     -18.233   4.243  24.713  1.00  0.00     0.408 P 
ATOM    261  O5'   C A  14     -18.625   3.794  26.191  1.00  0.00    -0.287 OA
ATOM    262  OP1   C A  14     -17.176   3.327  24.214  1.00  0.00    -0.624 OA
ATOM    263  OP2   C A  14     -19.486   4.411  23.933  1.00  0.00    -0.624 OA
ATOM    264  C5'   C A  14     -17.620   3.564  27.178  1.00  0.00     0.216 C 
ATOM    265  C4'   C A  14     -18.256   3.163  28.490  1.00  0.00     0.180 C 
ATOM    266  O4'   C A  14     -18.972   4.300  29.046  1.00  0.00    -0.353 OA
ATOM    267  C3'   C A  14     -19.317   2.075  28.409  1.00  0.00     0.198 C 
ATOM    268  C1'   C A  14     -20.128   3.842  29.732  1.00  0.00     0.264 C 
ATOM    269  C2'   C A  14     -20.105   2.315  29.689  1.00  0.00     0.199 C 
ATOM    270  N1    C A  14     -21.316   4.431  29.089  1.00  0.00    -0.278 N 
ATOM    271  O2'   C A  14     -19.400   1.838  30.820  1.00  0.00    -0.388 OA
ATOM    272 'HO2   C A  14     -18.773   1.190  30.499  1.00  0.00     0.210 HD
ATOM    273  C2    C A  14     -22.492   4.560  29.835  1.00  0.00     0.352 A 
ATOM    274  C6    C A  14     -21.277   4.844  27.787  1.00  0.00     0.102 A 
ATOM    275  O2    C A  14     -22.501   4.179  31.013  1.00  0.00    -0.244 OA
ATOM    276  N3    C A  14     -23.587   5.096  29.253  1.00  0.00    -0.177 NA
ATOM    277  C4    C A  14     -23.537   5.500  27.983  1.00  0.00     0.128 A 
ATOM    278  C5    C A  14     -22.353   5.382  27.200  1.00  0.00     0.067 A 
ATOM    279  N4    C A  14     -24.641   6.027  27.455  1.00  0.00    -0.384 N 
ATOM    280  H42   C A  14     -25.477   6.105  28.016  1.00  0.00     0.157 HD
ATOM    281  H41   C A  14     -24.646   6.346  26.498  1.00  0.00     0.157 HD
ATOM    282  O3'   C A  14     -18.745   0.771  28.353  1.00  0.00    -0.279 OA
ATOM    283  P     G A  15     -19.596  -0.446  27.733  1.00  0.00     0.408 P 
ATOM    284  OP1   G A  15     -18.719  -1.643  27.736  1.00  0.00    -0.624 OA
ATOM    285  OP2   G A  15     -20.212   0.010  26.459  1.00  0.00    -0.624 OA
ATOM    286  O5'   G A  15     -20.763  -0.681  28.793  1.00  0.00    -0.287 OA
ATOM    287  C5'   G A  15     -20.466  -1.058  30.137  1.00  0.00     0.216 C 
ATOM    288  C4'   G A  15     -21.743  -1.252  30.922  1.00  0.00     0.180 C 
ATOM    289  O4'   G A  15     -22.356   0.039  31.178  1.00  0.00    -0.353 OA
ATOM    290  C3'   G A  15     -22.846  -2.029  30.222  1.00  0.00     0.198 C 
ATOM    291  C1'   G A  15     -23.764  -0.118  31.255  1.00  0.00     0.262 C 
ATOM    292  N9    G A  15     -24.386   0.782  30.288  1.00  0.00    -0.293 N 
ATOM    293  C2'   G A  15     -24.081  -1.593  31.001  1.00  0.00     0.199 C 
ATOM    294  C8    G A  15     -23.792   1.373  29.200  1.00  0.00     0.214 A 
ATOM    295  C4    G A  15     -25.693   1.201  30.289  1.00  0.00     0.187 A 
ATOM    296  N7    G A  15     -24.607   2.130  28.516  1.00  0.00    -0.234 NA
ATOM    297  C5    G A  15     -25.815   2.028  29.194  1.00  0.00     0.173 A 
ATOM    298  C6    G A  15     -27.076   2.623  28.924  1.00  0.00     0.292 A 
ATOM    299  N1    G A  15     -28.028   2.251  29.866  1.00  0.00    -0.153 N 
ATOM    300  O6    G A  15     -27.388   3.383  28.002  1.00  0.00    -0.265 OA
ATOM    301  H1    G A  15     -28.957   2.628  29.756  1.00  0.00     0.187 HD
ATOM    302  C2    G A  15     -27.800   1.414  30.928  1.00  0.00     0.703 A 
ATOM    303  N3    G A  15     -26.635   0.853  31.191  1.00  0.00    -0.044 NA
ATOM    304  N2    G A  15     -28.844   1.174  31.725  1.00  0.00    -0.233 N 
ATOM    305  H21   G A  15     -28.730   0.564  32.521  1.00  0.00     0.174 HD
ATOM    306  H22   G A  15     -29.742   1.596  31.530  1.00  0.00     0.174 HD
ATOM    307  O2'   G A  15     -24.163  -2.260  32.246  1.00  0.00    -0.388 OA
ATOM    308 'HO2   G A  15     -23.614  -3.042  32.175  1.00  0.00     0.210 HD
ATOM    309  O3'   G A  15     -22.630  -3.436  30.282  1.00  0.00    -0.279 OA
ATOM    310  P     C A  16     -23.304  -4.394  29.180  1.00  0.00     0.408 P 
ATOM    311  OP2   C A  16     -22.944  -3.886  27.832  1.00  0.00    -0.624 OA
ATOM    312  O5'   C A  16     -24.870  -4.182  29.389  1.00  0.00    -0.287 OA
ATOM    313  OP1   C A  16     -22.974  -5.794  29.549  1.00  0.00    -0.624 OA
ATOM    314  C5'   C A  16     -25.514  -4.614  30.586  1.00  0.00     0.216 C 
ATOM    315  C4'   C A  16     -26.974  -4.219  30.567  1.00  0.00     0.180 C 
ATOM    316  O4'   C A  16     -27.085  -2.773  30.549  1.00  0.00    -0.353 OA
ATOM    317  C3'   C A  16     -27.762  -4.646  29.339  1.00  0.00     0.198 C 
ATOM    318  C1'   C A  16     -28.274  -2.400  29.873  1.00  0.00     0.264 C 
ATOM    319  N1    C A  16     -27.928  -1.454  28.799  1.00  0.00    -0.278 N 
ATOM    320  C2'   C A  16     -28.942  -3.680  29.365  1.00  0.00     0.199 C 
ATOM    321  C2    C A  16     -28.922  -0.608  28.303  1.00  0.00     0.352 A 
ATOM    322  C6    C A  16     -26.660  -1.401  28.290  1.00  0.00     0.102 A 
ATOM    323  N3    C A  16     -28.618   0.262  27.316  1.00  0.00    -0.177 NA
ATOM    324  O2    C A  16     -30.062  -0.673  28.780  1.00  0.00    -0.244 OA
ATOM    325  C4    C A  16     -27.378   0.310  26.828  1.00  0.00     0.128 A 
ATOM    326  C5    C A  16     -26.342  -0.541  27.314  1.00  0.00     0.067 A 
ATOM    327  N4    C A  16     -27.125   1.188  25.860  1.00  0.00    -0.384 N 
ATOM    328  H41   C A  16     -26.198   1.257  25.463  1.00  0.00     0.157 HD
ATOM    329  H42   C A  16     -27.865   1.785  25.519  1.00  0.00     0.157 HD
BRANCH 254 330
ATOM    330  N1    T A  13     -20.245   8.535  27.156  1.00  0.00    -0.280 N 
ATOM    331  C6    T A  13     -21.004   8.704  26.021  1.00  0.00     0.104 A 
ATOM    332  C5    T A  13     -22.325   8.891  26.065  1.00  0.00     0.092 A 
ATOM    333  C4    T A  13     -23.002   8.913  27.322  1.00  0.00     0.250 A 
ATOM    334  N3    T A  13     -22.187   8.733  28.415  1.00  0.00    -0.275 N 
ATOM    335  O4    T A  13     -24.211   9.075  27.492  1.00  0.00    -0.268 OA
ATOM    336  C2    T A  13     -20.830   8.543  28.410  1.00  0.00     0.331 A 
ATOM    337  H3    T A  13     -22.633   8.739  29.320  1.00  0.00     0.173 HD
ATOM    338  O2    T A  13     -20.195   8.393  29.438  1.00  0.00    -0.246 OA
ENDBRANCH 254 330
BRANCH 320 339
ATOM    339  O2'   C A  16     -29.914  -4.088  30.309  1.00  0.00    -0.388 OA
ATOM    340 'HO2   C A  16     -30.484  -4.717  29.866  1.00  0.00     0.210 HD
ENDBRANCH 320 339
BRANCH 317 341
ATOM    341  O3'   C A  16     -28.173  -6.008  29.419  1.00  0.00    -0.279 OA
BRANCH 341 342
ATOM    342  P     T A  17     -27.520  -7.098  28.431  1.00  0.00     0.408 P 
ATOM    343  OP2   T A  17     -28.615  -7.895  27.823  1.00  0.00    -0.624 OA
ATOM    344  OP1   T A  17     -26.558  -6.382  27.554  1.00  0.00    -0.624 OA
BRANCH 342 345
ATOM    345  O5'   T A  17     -26.693  -8.053  29.403  1.00  0.00    -0.287 OA
BRANCH 345 346
ATOM    346  C5'   T A  17     -25.372  -8.476  29.070  1.00  0.00     0.216 C 
BRANCH 346 347
ATOM    347  C4'   T A  17     -24.835  -9.406  30.134  1.00  0.00     0.180 C 
ATOM    348  O4'   T A  17     -23.796 -10.241  29.558  1.00  0.00    -0.353 OA
ATOM    349  C1'   T A  17     -22.805 -10.509  30.536  1.00  0.00     0.264 C 
ATOM    350  N1    T A  17     -21.511 -10.032  30.026  1.00  0.00    -0.280 N 
ATOM    351  C2'   T A  17     -23.241  -9.836  31.838  1.00  0.00     0.199 C 
ATOM    352  C2    T A  17     -20.376 -10.742  30.378  1.00  0.00     0.331 A 
ATOM    353  C6    T A  17     -21.428  -8.916  29.225  1.00  0.00     0.104 A 
ATOM    354  N3    T A  17     -19.203 -10.247  29.872  1.00  0.00    -0.275 N 
ATOM    355  O2    T A  17     -20.407 -11.734  31.084  1.00  0.00    -0.246 OA
ATOM    356  C4    T A  17     -19.048  -9.144  29.065  1.00  0.00     0.250 A 
ATOM    357  H3    T A  17     -18.356 -10.737  30.128  1.00  0.00     0.173 HD
ATOM    358  C5    T A  17     -20.265  -8.464  28.747  1.00  0.00     0.092 A 
ATOM    359  O4    T A  17     -17.921  -8.823  28.691  1.00  0.00    -0.268 OA
ATOM    360  C3'   T A  17     -24.155  -8.733  31.317  1.00  0.00     0.198 C 
ATOM    361  O2'   T A  17     -23.967 -10.772  32.611  1.00  0.00    -0.388 OA
ATOM    362 'HO2   T A  17     -24.827 -10.386  32.777  1.00  0.00     0.210 HD
BRANCH 360 363
ATOM    363  O3'   T A  17     -25.102  -8.302  32.291  1.00  0.00    -0.279 OA
BRANCH 363 364
ATOM    364  P     T A  18     -24.643  -7.308  33.468  1.00  0.00     0.408 P 
ATOM    365  OP2   T A  18     -24.092  -8.122  34.582  1.00  0.00    -0.624 OA
ATOM    366  OP1   T A  18     -23.806  -6.248  32.851  1.00  0.00    -0.624 OA
BRANCH 364 367
ATOM    367  O5'   T A  18     -26.003  -6.645  33.966  1.00  0.00    -0.287 OA
BRANCH 367 368
ATOM    368  C5'   T A  18     -26.110  -5.234  34.149  1.00  0.00     0.216 C 
ATOM    369  C4'   T A  18     -27.557  -4.841  34.330  1.00  0.00     0.180 C 
ATOM    370  C3'   T A  18     -28.336  -5.670  35.341  1.00  0.00     0.198 C 
ATOM    371  O4'   T A  18     -28.259  -5.042  33.075  1.00  0.00    -0.353 OA
ATOM    372  C2'   T A  18     -29.772  -5.535  34.845  1.00  0.00     0.199 C 
ATOM    373  O3'   T A  18     -28.171  -5.173  36.665  1.00  0.00    -0.279 OA
ATOM    374  C1'   T A  18     -29.569  -5.519  33.329  1.00  0.00     0.264 C 
ATOM    375  O2'   T A  18     -30.334  -4.299  35.242  1.00  0.00    -0.388 OA
ATOM    376  N1    T A  18     -29.708  -6.841  32.702  1.00  0.00    -0.280 N 
ATOM    377  C6    T A  18     -28.724  -7.796  32.822  1.00  0.00     0.104 A 
ATOM    378  C2    T A  18     -30.865  -7.096  31.988  1.00  0.00     0.331 A 
ATOM    379  C5    T A  18     -28.832  -9.008  32.270  1.00  0.00     0.092 A 
ATOM    380  C4    T A  18     -29.999  -9.350  31.520  1.00  0.00     0.250 A 
ATOM    381  O4    T A  18     -30.213 -10.428  30.968  1.00  0.00    -0.268 OA
ATOM    382  N3    T A  18     -30.941  -8.350  31.436  1.00  0.00    -0.275 N 
ATOM    383  H3    T A  18     -31.780  -8.560  30.916  1.00  0.00     0.173 HD
ATOM    384  O2    T A  18     -31.754  -6.277  31.853  1.00  0.00    -0.246 OA
ATOM    385 'HO2   T A  18     -29.782  -3.957  35.945  1.00  0.00     0.210 HD
ATOM    386  P     T A  19     -27.083  -5.844  37.645  1.00  0.00     0.408 P 
ATOM    387  O5'   T A  19     -27.966  -6.586  38.744  1.00  0.00    -0.287 OA
ATOM    388  OP2   T A  19     -26.316  -6.870  36.893  1.00  0.00    -0.624 OA
ATOM    389  OP1   T A  19     -26.358  -4.736  38.318  1.00  0.00    -0.624 OA
ATOM    390  C5'   T A  19     -28.943  -7.559  38.371  1.00  0.00     0.216 C 
ATOM    391  C4'   T A  19     -30.287  -7.201  38.961  1.00  0.00     0.180 C 
ATOM    392  O4'   T A  19     -30.190  -7.276  40.412  1.00  0.00    -0.353 OA
ATOM    393  C3'   T A  19     -30.778  -5.788  38.658  1.00  0.00     0.198 C 
ATOM    394  C1'   T A  19     -30.419  -5.999  40.973  1.00  0.00     0.264 C 
ATOM    395  N1    T A  19     -29.484  -5.809  42.091  1.00  0.00    -0.280 N 
ATOM    396  C2'   T A  19     -30.254  -4.987  39.843  1.00  0.00     0.199 C 
ATOM    397  C2    T A  19     -30.014  -5.506  43.332  1.00  0.00     0.331 A 
ATOM    398  C6    T A  19     -28.125  -5.930  41.913  1.00  0.00     0.104 A 
ATOM    399  O2    T A  19     -31.211  -5.392  43.531  1.00  0.00    -0.246 OA
ATOM    400  N3    T A  19     -29.092  -5.340  44.333  1.00  0.00    -0.275 N 
ATOM    401  H3    T A  19     -29.457  -5.118  45.245  1.00  0.00     0.173 HD
ATOM    402  C4    T A  19     -27.724  -5.445  44.224  1.00  0.00     0.250 A 
ATOM    403  C5    T A  19     -27.254  -5.761  42.912  1.00  0.00     0.092 A 
ATOM    404  O4    T A  19     -27.025  -5.268  45.221  1.00  0.00    -0.268 OA
ATOM    405  O2'   T A  19     -31.078  -3.867  40.110  1.00  0.00    -0.388 OA
ATOM    406 'HO2   T A  19     -31.937  -4.062  39.733  1.00  0.00     0.210 HD
ATOM    407  O3'   T A  19     -32.200  -5.738  38.568  1.00  0.00    -0.279 OA
ATOM    408  P     G A  20     -32.908  -5.620  37.129  1.00  0.00     0.408 P 
ATOM    409  O5'   G A  20     -34.443  -5.928  37.429  1.00  0.00    -0.287 OA
ATOM    410  OP1   G A  20     -32.378  -6.714  36.278  1.00  0.00    -0.624 OA
ATOM    411  OP2   G A  20     -32.796  -4.211  36.673  1.00  0.00    -0.624 OA
ATOM    412  C5'   G A  20     -34.823  -6.826  38.470  1.00  0.00     0.216 C 
ATOM    413  C4'   G A  20     -36.261  -7.256  38.289  1.00  0.00     0.180 C 
ATOM    414  C3'   G A  20     -36.551  -8.014  36.998  1.00  0.00     0.198 C 
ATOM    415  O4'   G A  20     -37.094  -6.065  38.242  1.00  0.00    -0.353 OA
ATOM    416  O3'   G A  20     -37.578  -8.986  37.184  1.00  0.00    -0.279 OA
ATOM    417  C2'   G A  20     -36.966  -6.911  36.031  1.00  0.00     0.199 C 
ATOM    418  P     G A  21     -37.290 -10.531  36.845  1.00  0.00     0.408 P 
ATOM    419  OP1   G A  21     -38.571 -11.122  36.384  1.00  0.00    -0.624 OA
ATOM    420  O5'   G A  21     -36.283 -10.479  35.611  1.00  0.00    -0.287 OA
ATOM    421  OP2   G A  21     -36.579 -11.134  38.002  1.00  0.00    -0.624 OA
ATOM    422  C5'   G A  21     -36.685  -9.931  34.356  1.00  0.00     0.216 C 
ATOM    423  C4'   G A  21     -36.553 -10.969  33.265  1.00  0.00     0.180 C 
ATOM    424  C3'   G A  21     -37.664 -10.938  32.215  1.00  0.00     0.198 C 
ATOM    425  O4'   G A  21     -36.615 -12.295  33.865  1.00  0.00    -0.353 OA
ATOM    426  C2'   G A  21     -38.622 -12.024  32.690  1.00  0.00     0.199 C 
ATOM    427  O3'   G A  21     -37.159 -11.207  30.909  1.00  0.00    -0.279 OA
ATOM    428  C1'   G A  21     -37.639 -13.046  33.252  1.00  0.00     0.262 C 
ATOM    429  O2'   G A  21     -39.315 -12.608  31.602  1.00  0.00    -0.388 OA
ATOM    430  N9    G A  21     -38.199 -13.959  34.244  1.00  0.00    -0.293 N 
ATOM    431  C8    G A  21     -39.255 -13.725  35.091  1.00  0.00     0.214 A 
ATOM    432  C4    G A  21     -37.764 -15.234  34.514  1.00  0.00     0.187 A 
ATOM    433  N7    G A  21     -39.526 -14.737  35.869  1.00  0.00    -0.234 NA
ATOM    434  C5    G A  21     -38.590 -15.699  35.515  1.00  0.00     0.173 A 
ATOM    435  C6    G A  21     -38.384 -17.013  36.014  1.00  0.00     0.292 A 
ATOM    436  O6    G A  21     -39.008 -17.609  36.899  1.00  0.00    -0.265 OA
ATOM    437  N1    G A  21     -37.324 -17.643  35.373  1.00  0.00    -0.153 N 
ATOM    438  H1    G A  21     -37.106 -18.583  35.666  1.00  0.00     0.187 HD
ATOM    439  C2    G A  21     -36.561 -17.086  34.381  1.00  0.00     0.703 A 
ATOM    440  N2    G A  21     -35.584 -17.852  33.887  1.00  0.00    -0.233 N 
ATOM    441  N3    G A  21     -36.739 -15.867  33.905  1.00  0.00    -0.044 NA
ATOM    442  H22   G A  21     -35.434 -18.785  34.240  1.00  0.00     0.174 HD
ATOM    443  H21   G A  21     -34.995 -17.483  33.155  1.00  0.00     0.174 HD
ATOM    444 'HO2   G A  21     -38.851 -12.335  30.809  1.00  0.00     0.210 HD
ATOM    445  P     G A  22     -36.549 -10.011  30.023  1.00  0.00     0.408 P 
ATOM    446  OP1   G A  22     -36.759 -10.371  28.597  1.00  0.00    -0.624 OA
ATOM    447  O5'   G A  22     -37.478  -8.760  30.360  1.00  0.00    -0.287 OA
ATOM    448  OP2   G A  22     -35.178  -9.717  30.509  1.00  0.00    -0.624 OA
ATOM    449  C5'   G A  22     -38.852  -8.734  29.970  1.00  0.00     0.216 C 
ATOM    450  C4'   G A  22     -39.474  -7.411  30.350  1.00  0.00     0.180 C 
ATOM    451  O4'   G A  22     -39.208  -7.157  31.758  1.00  0.00    -0.353 OA
ATOM    452  C3'   G A  22     -38.917  -6.199  29.616  1.00  0.00     0.198 C 
ATOM    453  C1'   G A  22     -38.828  -5.806  31.939  1.00  0.00     0.262 C 
ATOM    454  C2'   G A  22     -39.106  -5.075  30.627  1.00  0.00     0.199 C 
ATOM    455  N9    G A  22     -37.426  -5.771  32.345  1.00  0.00    -0.293 N 
ATOM    456  O2'   G A  22     -40.445  -4.616  30.635  1.00  0.00    -0.388 OA
ATOM    457 'HO2   G A  22     -40.832  -4.889  29.802  1.00  0.00     0.210 HD
ATOM    458  C8    G A  22     -36.576  -6.842  32.480  1.00  0.00     0.214 A 
ATOM    459  C4    G A  22     -36.695  -4.654  32.668  1.00  0.00     0.187 A 
ATOM    460  N7    G A  22     -35.375  -6.501  32.860  1.00  0.00    -0.234 NA
ATOM    461  C5    G A  22     -35.436  -5.119  32.984  1.00  0.00     0.173 A 
ATOM    462  C6    G A  22     -34.439  -4.185  33.367  1.00  0.00     0.292 A 
ATOM    463  O6    G A  22     -33.264  -4.397  33.685  1.00  0.00    -0.265 OA
ATOM    464  N1    G A  22     -34.927  -2.884  33.357  1.00  0.00    -0.153 N 
ATOM    465  C2    G A  22     -36.207  -2.526  33.024  1.00  0.00     0.703 A 
ATOM    466  H1    G A  22     -34.285  -2.152  33.618  1.00  0.00     0.187 HD
ATOM    467  N3    G A  22     -37.147  -3.382  32.668  1.00  0.00    -0.044 NA
ATOM    468  N2    G A  22     -36.485  -1.220  33.074  1.00  0.00    -0.233 N 
ATOM    469  H21   G A  22     -37.413  -0.904  32.836  1.00  0.00     0.174 HD
ATOM    470  H22   G A  22     -35.776  -0.557  33.347  1.00  0.00     0.174 HD
ATOM    471  O3'   G A  22     -39.623  -5.960  28.400  1.00  0.00    -0.279 OA
ATOM    472  P     T A  23     -38.814  -5.536  27.076  1.00  0.00     0.408 P 
ATOM    473  O5'   T A  23     -38.028  -4.220  27.510  1.00  0.00    -0.287 OA
ATOM    474  OP2   T A  23     -37.818  -6.594  26.775  1.00  0.00    -0.624 OA
ATOM    475  OP1   T A  23     -39.817  -5.157  26.049  1.00  0.00    -0.624 OA
ATOM    476  C5'   T A  23     -38.728  -3.047  27.922  1.00  0.00     0.216 C 
ATOM    477  C4'   T A  23     -37.751  -2.008  28.421  1.00  0.00     0.180 C 
ATOM    478  C3'   T A  23     -36.628  -1.655  27.456  1.00  0.00     0.198 C 
ATOM    479  O4'   T A  23     -37.074  -2.525  29.599  1.00  0.00    -0.353 OA
ATOM    480  O3'   T A  23     -37.029  -0.644  26.536  1.00  0.00    -0.279 OA
ATOM    481  C2'   T A  23     -35.522  -1.191  28.393  1.00  0.00     0.199 C 
ATOM    482  P     G A  24     -36.759  -0.839  24.963  1.00  0.00     0.408 P 
ATOM    483  OP2   G A  24     -37.034  -2.256  24.607  1.00  0.00    -0.624 OA
ATOM    484  OP1   G A  24     -37.479   0.248  24.253  1.00  0.00    -0.624 OA
ATOM    485  O5'   G A  24     -35.195  -0.581  24.807  1.00  0.00    -0.287 OA
ATOM    486  C5'   G A  24     -34.590   0.601  25.328  1.00  0.00     0.216 C 
ATOM    487  C4'   G A  24     -33.088   0.448  25.365  1.00  0.00     0.180 C 
ATOM    488  O4'   G A  24     -32.729  -0.491  26.415  1.00  0.00    -0.353 OA
ATOM    489  C3'   G A  24     -32.455  -0.140  24.113  1.00  0.00     0.198 C 
ATOM    490  C1'   G A  24     -31.599  -1.246  26.010  1.00  0.00     0.262 C 
ATOM    491  C2'   G A  24     -31.149  -0.710  24.651  1.00  0.00     0.199 C 
ATOM    492  N9    G A  24     -31.971  -2.658  25.986  1.00  0.00    -0.293 N 
ATOM    493  O2'   G A  24     -30.193   0.312  24.859  1.00  0.00    -0.388 OA
ATOM    494 'HO2   G A  24     -30.482   1.069  24.349  1.00  0.00     0.210 HD
ATOM    495  C4    G A  24     -31.116  -3.726  25.857  1.00  0.00     0.187 A 
ATOM    496  C8    G A  24     -33.235  -3.186  26.086  1.00  0.00     0.214 A 
ATOM    497  C5    G A  24     -31.921  -4.846  25.890  1.00  0.00     0.173 A 
ATOM    498  N3    G A  24     -29.775  -3.656  25.728  1.00  0.00    -0.044 NA
ATOM    499  C6    G A  24     -31.315  -6.126  25.778  1.00  0.00     0.292 A 
ATOM    500  N7    G A  24     -33.256  -4.489  26.034  1.00  0.00    -0.234 NA
ATOM    501  O6    G A  24     -31.853  -7.239  25.786  1.00  0.00    -0.265 OA
ATOM    502  N1    G A  24     -29.935  -6.028  25.646  1.00  0.00    -0.153 N 
ATOM    503  H1    G A  24     -29.417  -6.888  25.559  1.00  0.00     0.187 HD
ATOM    504  C2    G A  24     -29.226  -4.853  25.624  1.00  0.00     0.703 A 
ATOM    505  N2    G A  24     -27.904  -4.966  25.488  1.00  0.00    -0.233 N 
ATOM    506  H22   G A  24     -27.475  -5.878  25.408  1.00  0.00     0.174 HD
ATOM    507  H21   G A  24     -27.335  -4.134  25.466  1.00  0.00     0.174 HD
ATOM    508  O3'   G A  24     -32.248   0.853  23.112  1.00  0.00    -0.279 OA
ATOM    509  P     C A  25     -32.234   0.432  21.559  1.00  0.00     0.408 P 
ATOM    510  OP2   C A  25     -33.384  -0.474  21.304  1.00  0.00    -0.624 OA
ATOM    511  OP1   C A  25     -32.094   1.679  20.766  1.00  0.00    -0.624 OA
ATOM    512  O5'   C A  25     -30.893  -0.412  21.400  1.00  0.00    -0.287 OA
ATOM    513  C5'   C A  25     -29.620   0.176  21.667  1.00  0.00     0.216 C 
ATOM    514  C1'   T A  23     -35.706  -2.152  29.567  1.00  0.00     0.264 C 
ATOM    515  O2'   T A  23     -35.755   0.130  28.847  1.00  0.00    -0.388 OA
ATOM    516  N1    T A  23     -34.896  -3.375  29.463  1.00  0.00    -0.280 N 
ATOM    517  C6    T A  23     -35.278  -4.419  28.650  1.00  0.00     0.104 A 
ATOM    518  C2    T A  23     -33.731  -3.440  30.206  1.00  0.00     0.331 A 
ATOM    519  C5    T A  23     -34.551  -5.533  28.528  1.00  0.00     0.092 A 
ATOM    520  C4    T A  23     -33.329  -5.674  29.257  1.00  0.00     0.250 A 
ATOM    521  O4    T A  23     -32.555  -6.630  29.195  1.00  0.00    -0.268 OA
ATOM    522  N3    T A  23     -33.013  -4.599  30.057  1.00  0.00    -0.275 N 
ATOM    523  H3    T A  23     -32.168  -4.678  30.603  1.00  0.00     0.173 HD
ATOM    524  O2    T A  23     -33.363  -2.541  30.941  1.00  0.00    -0.246 OA
ATOM    525 'HO2   T A  23     -36.314   0.550  28.192  1.00  0.00     0.210 HD
ATOM    526  C1'   G A  20     -37.690  -5.944  36.965  1.00  0.00     0.262 C 
ATOM    527  O2'   G A  20     -37.894  -7.389  35.077  1.00  0.00    -0.388 OA
ATOM    528  N9    G A  20     -37.600  -4.549  36.548  1.00  0.00    -0.293 N 
ATOM    529  C8    G A  20     -36.457  -3.810  36.367  1.00  0.00     0.214 A 
ATOM    530  C4    G A  20     -38.651  -3.714  36.255  1.00  0.00     0.187 A 
ATOM    531  N7    G A  20     -36.690  -2.585  35.983  1.00  0.00    -0.234 NA
ATOM    532  C5    G A  20     -38.075  -2.510  35.908  1.00  0.00     0.173 A 
ATOM    533  C6    G A  20     -38.919  -1.429  35.544  1.00  0.00     0.292 A 
ATOM    534  N1    G A  20     -40.262  -1.787  35.604  1.00  0.00    -0.153 N 
ATOM    535  O6    G A  20     -38.604  -0.283  35.202  1.00  0.00    -0.265 OA
ATOM    536  H1    G A  20     -40.937  -1.079  35.362  1.00  0.00     0.187 HD
ATOM    537  C2    G A  20     -40.732  -3.023  35.967  1.00  0.00     0.703 A 
ATOM    538  N3    G A  20     -39.960  -4.038  36.306  1.00  0.00    -0.044 NA
ATOM    539  N2    G A  20     -42.059  -3.172  35.967  1.00  0.00    -0.233 N 
ATOM    540  H21   G A  20     -42.453  -4.065  36.227  1.00  0.00     0.174 HD
ATOM    541  H22   G A  20     -42.663  -2.405  35.709  1.00  0.00     0.174 HD
ATOM    542 'HO2   G A  20     -38.392  -8.090  35.499  1.00  0.00     0.210 HD
BRANCH 513 543
ATOM    543  C4'   C A  25     -28.515  -0.818  21.397  1.00  0.00     0.180 C 
ATOM    544  C3'   C A  25     -27.479  -0.395  20.365  1.00  0.00     0.198 C 
ATOM    545  C2'   C A  25     -26.929  -1.738  19.903  1.00  0.00     0.199 C 
ATOM    546  C1'   C A  25     -28.209  -2.572  19.866  1.00  0.00     0.264 C 
ATOM    547  O4'   C A  25     -29.090  -2.033  20.838  1.00  0.00    -0.353 OA
BRANCH 544 548
ATOM    548  O3'   C A  25     -26.473   0.443  20.926  1.00  0.00    -0.279 OA
BRANCH 548 549
ATOM    549  P     G A  26     -26.381   0.619  22.522  1.00  0.00     0.408 P 
ATOM    550  OP2   G A  26     -27.113   1.854  22.904  1.00  0.00    -0.624 OA
ATOM    551  OP1   G A  26     -26.769  -0.679  23.130  1.00  0.00    -0.624 OA
BRANCH 549 552
ATOM    552  O5'   G A  26     -24.829   0.853  22.798  1.00  0.00    -0.287 OA
BRANCH 552 553
ATOM    553  C5'   G A  26     -24.393   1.792  23.779  1.00  0.00     0.216 C 
ATOM    554  C4'   G A  26     -23.374   2.740  23.186  1.00  0.00     0.180 C 
ATOM    555  C3'   G A  26     -23.795   3.471  21.921  1.00  0.00     0.198 C 
ATOM    556  O4'   G A  26     -22.203   1.995  22.759  1.00  0.00    -0.353 OA
ATOM    557  C2'   G A  26     -22.450   3.892  21.343  1.00  0.00     0.199 C 
ATOM    558  O3'   G A  26     -24.642   4.583  22.197  1.00  0.00    -0.279 OA
ATOM    559  O2'   G A  26     -21.924   5.010  22.033  1.00  0.00    -0.388 OA
ATOM    560  C1'   G A  26     -21.592   2.668  21.669  1.00  0.00     0.262 C 
ATOM    561 'HO2   G A  26     -22.667   5.455  22.439  1.00  0.00     0.210 HD
ATOM    562  N9    G A  26     -21.470   1.735  20.553  1.00  0.00    -0.293 N 
ATOM    563  C4    G A  26     -20.665   1.888  19.450  1.00  0.00     0.187 A 
ATOM    564  C8    G A  26     -22.128   0.542  20.389  1.00  0.00     0.214 A 
ATOM    565  N3    G A  26     -19.845   2.931  19.206  1.00  0.00    -0.044 NA
ATOM    566  C5    G A  26     -20.886   0.767  18.677  1.00  0.00     0.173 A 
ATOM    567  C2    G A  26     -19.199   2.793  18.062  1.00  0.00     0.703 A 
ATOM    568  N2    G A  26     -18.344   3.739  17.667  1.00  0.00    -0.233 N 
ATOM    569  N1    G A  26     -19.346   1.719  17.221  1.00  0.00    -0.153 N 
ATOM    570  H21   G A  26     -18.200   4.550  18.250  1.00  0.00     0.174 HD
ATOM    571  H22   G A  26     -17.843   3.646  16.793  1.00  0.00     0.174 HD
ATOM    572  H1    G A  26     -18.803   1.714  16.370  1.00  0.00     0.187 HD
ATOM    573  C6    G A  26     -20.185   0.634  17.450  1.00  0.00     0.292 A 
ATOM    574  O6    G A  26     -20.244  -0.282  16.624  1.00  0.00    -0.265 OA
ATOM    575  N7    G A  26     -21.810  -0.074  19.283  1.00  0.00    -0.234 NA
ATOM    576  P     A A  27     -25.557   5.199  21.026  1.00  0.00     0.408 P 
ATOM    577  O5'   A A  27     -24.509   5.746  19.959  1.00  0.00    -0.287 OA
ATOM    578  OP2   A A  27     -26.325   4.093  20.399  1.00  0.00    -0.624 OA
ATOM    579  OP1   A A  27     -26.282   6.360  21.601  1.00  0.00    -0.624 OA
ATOM    580  C5'   A A  27     -23.692   6.880  20.249  1.00  0.00     0.216 C 
ATOM    581  C4'   A A  27     -22.851   7.245  19.045  1.00  0.00     0.180 C 
ATOM    582  C3'   A A  27     -23.591   7.363  17.722  1.00  0.00     0.198 C 
ATOM    583  O4'   A A  27     -21.883   6.194  18.791  1.00  0.00    -0.353 OA
ATOM    584  O3'   A A  27     -24.266   8.612  17.592  1.00  0.00    -0.279 OA
ATOM    585  C2'   A A  27     -22.459   7.205  16.716  1.00  0.00     0.199 C 
ATOM    586  P     G A  28     -25.464   8.763  16.529  1.00  0.00     0.408 P 
ATOM    587  OP2   G A  28     -26.433   7.661  16.754  1.00  0.00    -0.624 OA
ATOM    588  OP1   G A  28     -25.931  10.172  16.589  1.00  0.00    -0.624 OA
ATOM    589  O5'   G A  28     -24.761   8.531  15.117  1.00  0.00    -0.287 OA
ATOM    590  C5'   G A  28     -24.088   9.597  14.449  1.00  0.00     0.216 C 
ATOM    591  C4'   G A  28     -23.224   9.057  13.331  1.00  0.00     0.180 C 
ATOM    592  C3'   G A  28     -23.942   8.732  12.031  1.00  0.00     0.198 C 
ATOM    593  O4'   G A  28     -22.656   7.780  13.716  1.00  0.00    -0.353 OA
ATOM    594  C2'   G A  28     -22.961   7.782  11.352  1.00  0.00     0.199 C 
ATOM    595  C1'   G A  28     -22.399   7.013  12.551  1.00  0.00     0.262 C 
ATOM    596  N9    G A  28     -22.991   5.690  12.725  1.00  0.00    -0.293 N 
ATOM    597  C8    G A  28     -23.779   5.258  13.763  1.00  0.00     0.214 A 
ATOM    598  C4    G A  28     -22.863   4.622  11.868  1.00  0.00     0.187 A 
ATOM    599  N7    G A  28     -24.156   4.014  13.643  1.00  0.00    -0.234 NA
ATOM    600  C5    G A  28     -23.583   3.599  12.447  1.00  0.00     0.173 A 
ATOM    601  C6    G A  28     -23.639   2.343  11.787  1.00  0.00     0.292 A 
ATOM    602  O6    G A  28     -24.221   1.311  12.137  1.00  0.00    -0.265 OA
ATOM    603  N1    G A  28     -22.918   2.359  10.597  1.00  0.00    -0.153 N 
ATOM    604  C2    G A  28     -22.232   3.439  10.107  1.00  0.00     0.703 A 
ATOM    605  H1    G A  28     -22.901   1.508  10.057  1.00  0.00     0.187 HD
ATOM    606  N3    G A  28     -22.168   4.613  10.711  1.00  0.00    -0.044 NA
ATOM    607  O2'   A A  27     -21.704   8.398  16.604  1.00  0.00    -0.388 OA
ATOM    608  C1'   A A  27     -21.598   6.144  17.402  1.00  0.00     0.262 C 
ATOM    609 'HO2   A A  27     -22.330   9.110  16.483  1.00  0.00     0.210 HD
ATOM    610  N9    A A  27     -21.857   4.786  16.923  1.00  0.00    -0.294 N 
ATOM    611  C4    A A  27     -21.365   4.231  15.767  1.00  0.00     0.167 A 
ATOM    612  C8    A A  27     -22.627   3.813  17.508  1.00  0.00     0.214 A 
ATOM    613  N3    A A  27     -20.559   4.812  14.861  1.00  0.00    -0.222 NA
ATOM    614  C5    A A  27     -21.869   2.943  15.723  1.00  0.00     0.149 A 
ATOM    615  C2    A A  27     -20.286   3.971  13.867  1.00  0.00     0.237 A 
ATOM    616  N1    A A  27     -20.697   2.708  13.689  1.00  0.00    -0.222 NA
ATOM    617  C6    A A  27     -21.505   2.153  14.618  1.00  0.00     0.155 A 
ATOM    618  N6    A A  27     -21.912   0.897  14.439  1.00  0.00    -0.382 N 
ATOM    619  H62   A A  27     -21.620   0.378  13.622  1.00  0.00     0.157 HD
ATOM    620  H61   A A  27     -22.518   0.464  15.122  1.00  0.00     0.157 HD
ATOM    621  N7    A A  27     -22.666   2.691  16.831  1.00  0.00    -0.236 NA
BRANCH 592 622
ATOM    622  O3'   G A  28     -24.193   9.902  11.257  1.00  0.00    -0.279 OA
BRANCH 622 623
ATOM    623  P     A A  29     -25.704  10.294  10.864  1.00  0.00     0.408 P 
ATOM    624  OP2   A A  29     -26.079   9.549   9.635  1.00  0.00    -0.624 OA
ATOM    625  OP1   A A  29     -26.529  10.146  12.091  1.00  0.00    -0.624 OA
BRANCH 623 626
ATOM    626  O5'   A A  29     -25.621  11.845  10.506  1.00  0.00    -0.287 OA
BRANCH 626 627
ATOM    627  C5'   A A  29     -24.460  12.609  10.826  1.00  0.00     0.216 C 
BRANCH 627 628
ATOM    628  C4'   A A  29     -24.337  12.774  12.324  1.00  0.00     0.180 C 
ATOM    629  C3'   A A  29     -24.522  14.189  12.853  1.00  0.00     0.198 C 
ATOM    630  O3'   A A  29     -25.900  14.522  13.002  1.00  0.00    -0.279 OA
ATOM    631  C2'   A A  29     -23.790  14.132  14.189  1.00  0.00     0.199 C 
ATOM    632  P     G A  30     -26.345  16.068  13.065  1.00  0.00     0.408 P 
ATOM    633  OP1   G A  30     -27.822  16.094  13.214  1.00  0.00    -0.624 OA
ATOM    634  O5'   G A  30     -25.701  16.603  14.421  1.00  0.00    -0.287 OA
ATOM    635  OP2   G A  30     -25.711  16.785  11.930  1.00  0.00    -0.624 OA
ATOM    636  C5'   G A  30     -26.103  16.074  15.685  1.00  0.00     0.216 C 
ATOM    637  C4'   G A  30     -25.549  16.920  16.807  1.00  0.00     0.180 C 
ATOM    638  C3'   G A  30     -25.936  18.400  16.760  1.00  0.00     0.198 C 
ATOM    639  O4'   G A  30     -24.095  16.886  16.740  1.00  0.00    -0.353 OA
ATOM    640  O3'   G A  30     -26.242  18.899  18.061  1.00  0.00    -0.279 OA
ATOM    641  C2'   G A  30     -24.701  19.070  16.166  1.00  0.00     0.199 C 
ATOM    642  P     G A  31     -27.678  18.594  18.721  1.00  0.00     0.408 P 
ATOM    643  OP1   G A  31     -28.594  18.162  17.633  1.00  0.00    -0.624 OA
ATOM    644  OP2   G A  31     -28.047  19.756  19.569  1.00  0.00    -0.624 OA
ATOM    645  O5'   G A  31     -27.413  17.339  19.667  1.00  0.00    -0.287 OA
ATOM    646  C5'   G A  31     -26.973  17.504  21.015  1.00  0.00     0.216 C 
ATOM    647  C4'   G A  31     -27.760  16.599  21.934  1.00  0.00     0.180 C 
ATOM    648  C3'   G A  31     -27.609  16.884  23.423  1.00  0.00     0.198 C 
ATOM    649  O4'   G A  31     -27.283  15.234  21.776  1.00  0.00    -0.353 OA
ATOM    650  O3'   G A  31     -28.513  17.894  23.862  1.00  0.00    -0.279 OA
ATOM    651  C2'   G A  31     -27.908  15.527  24.048  1.00  0.00     0.199 C 
ATOM    652  P     G A  32     -28.218  18.691  25.228  1.00  0.00     0.408 P 
ATOM    653  OP1   G A  32     -29.348  19.629  25.444  1.00  0.00    -0.624 OA
ATOM    654  O5'   G A  32     -28.285  17.566  26.355  1.00  0.00    -0.287 OA
ATOM    655  OP2   G A  32     -26.829  19.215  25.173  1.00  0.00    -0.624 OA
ATOM    656  C5'   G A  32     -29.507  16.895  26.654  1.00  0.00     0.216 C 
ATOM    657  C4'   G A  32     -29.443  16.280  28.034  1.00  0.00     0.180 C 
ATOM    658  C3'   G A  32     -28.656  17.070  29.068  1.00  0.00     0.198 C 
ATOM    659  O4'   G A  32     -28.747  15.009  27.953  1.00  0.00    -0.353 OA
ATOM    660  C2'   G A  32     -28.248  15.992  30.066  1.00  0.00     0.199 C 
ATOM    661  O3'   G A  32     -29.455  18.093  29.657  1.00  0.00    -0.279 OA
ATOM    662  O2'   G A  32     -29.314  15.668  30.941  1.00  0.00    -0.388 OA
ATOM    663  C1'   G A  32     -28.002  14.799  29.140  1.00  0.00     0.262 C 
ATOM    664 'HO2   G A  32     -29.307  16.319  31.643  1.00  0.00     0.210 HD
ATOM    665  N9    G A  32     -26.600  14.618  28.776  1.00  0.00    -0.293 N 
ATOM    666  C4    G A  32     -25.645  13.949  29.505  1.00  0.00     0.187 A 
ATOM    667  C8    G A  32     -25.971  15.075  27.644  1.00  0.00     0.214 A 
ATOM    668  N3    G A  32     -25.838  13.342  30.694  1.00  0.00    -0.044 NA
ATOM    669  C5    G A  32     -24.488  14.040  28.762  1.00  0.00     0.173 A 
ATOM    670  C2    G A  32     -24.729  12.784  31.147  1.00  0.00     0.703 A 
ATOM    671  N2    G A  32     -24.742  12.142  32.318  1.00  0.00    -0.233 N 
ATOM    672  N1    G A  32     -23.528  12.816  30.486  1.00  0.00    -0.153 N 
ATOM    673  H21   G A  32     -25.603  12.092  32.843  1.00  0.00     0.174 HD
ATOM    674  H22   G A  32     -23.903  11.712  32.678  1.00  0.00     0.174 HD
ATOM    675  C6    G A  32     -23.306  13.432  29.262  1.00  0.00     0.292 A 
ATOM    676  H1    G A  32     -22.740  12.356  30.918  1.00  0.00     0.187 HD
ATOM    677  O6    G A  32     -22.182  13.398  28.752  1.00  0.00    -0.265 OA
ATOM    678  N7    G A  32     -24.708  14.754  27.591  1.00  0.00    -0.234 NA
ATOM    679  P     T A  33     -28.765  19.215  30.578  1.00  0.00     0.408 P 
ATOM    680  OP1   T A  33     -29.757  20.305  30.763  1.00  0.00    -0.624 OA
ATOM    681  O5'   T A  33     -28.564  18.490  31.983  1.00  0.00    -0.287 OA
ATOM    682  OP2   T A  33     -27.427  19.531  30.015  1.00  0.00    -0.624 OA
ATOM    683  C5'   T A  33     -27.301  18.501  32.647  1.00  0.00     0.216 C 
ATOM    684  C4'   T A  33     -27.251  17.408  33.686  1.00  0.00     0.180 C 
ATOM    685  C3'   T A  33     -26.225  17.612  34.795  1.00  0.00     0.198 C 
ATOM    686  O4'   T A  33     -26.862  16.166  33.038  1.00  0.00    -0.353 OA
ATOM    687  O3'   T A  33     -26.767  18.368  35.875  1.00  0.00    -0.279 OA
ATOM    688  C2'   T A  33     -25.886  16.183  35.197  1.00  0.00     0.199 C 
ATOM    689  P     T A  34     -26.114  19.785  36.269  1.00  0.00     0.408 P 
ATOM    690  OP1   T A  34     -27.181  20.602  36.900  1.00  0.00    -0.624 OA
ATOM    691  O5'   T A  34     -25.043  19.417  37.391  1.00  0.00    -0.287 OA
ATOM    692  OP2   T A  34     -25.382  20.318  35.091  1.00  0.00    -0.624 OA
ATOM    693  C5'   T A  34     -25.451  18.880  38.648  1.00  0.00     0.216 C 
ATOM    694  C4'   T A  34     -24.398  17.935  39.179  1.00  0.00     0.180 C 
ATOM    695  O4'   T A  34     -24.121  16.924  38.172  1.00  0.00    -0.353 OA
ATOM    696  C3'   T A  34     -23.044  18.567  39.474  1.00  0.00     0.198 C 
ATOM    697  C1'   T A  34     -22.732  16.642  38.146  1.00  0.00     0.264 C 
ATOM    698  C2'   T A  34     -22.090  17.390  39.314  1.00  0.00     0.199 C 
ATOM    699  N1    T A  34     -22.204  17.034  36.831  1.00  0.00    -0.280 N 
ATOM    700  C6    T A  34     -22.909  17.875  36.001  1.00  0.00     0.104 A 
ATOM    701  C2    T A  34     -20.972  16.530  36.454  1.00  0.00     0.331 A 
ATOM    702  C5    T A  34     -22.450  18.247  34.802  1.00  0.00     0.092 A 
ATOM    703  C4    T A  34     -21.184  17.770  34.342  1.00  0.00     0.250 A 
ATOM    704  O4    T A  34     -20.657  18.043  33.265  1.00  0.00    -0.268 OA
ATOM    705  N3    T A  34     -20.533  16.935  35.220  1.00  0.00    -0.275 N 
ATOM    706  H3    T A  34     -19.634  16.583  34.928  1.00  0.00     0.173 HD
ATOM    707  O2    T A  34     -20.317  15.785  37.159  1.00  0.00    -0.246 OA
ATOM    708  C1'   T A  33     -25.914  15.482  33.840  1.00  0.00     0.264 C 
ATOM    709  O2'   T A  33     -26.896  15.627  36.017  1.00  0.00    -0.388 OA
ATOM    710  N1    T A  33     -24.622  15.489  33.138  1.00  0.00    -0.280 N 
ATOM    711  C6    T A  33     -24.466  16.132  31.930  1.00  0.00     0.104 A 
ATOM    712  C2    T A  33     -23.562  14.829  33.733  1.00  0.00     0.331 A 
ATOM    713  C5    T A  33     -23.301  16.154  31.276  1.00  0.00     0.092 A 
ATOM    714  C4    T A  33     -22.160  15.495  31.828  1.00  0.00     0.250 A 
ATOM    715  O4    T A  33     -21.041  15.436  31.318  1.00  0.00    -0.268 OA
ATOM    716  N3    T A  33     -22.384  14.875  33.034  1.00  0.00    -0.275 N 
ATOM    717  H3    T A  33     -21.596  14.408  33.455  1.00  0.00     0.173 HD
ATOM    718  O2    T A  33     -23.658  14.247  34.798  1.00  0.00    -0.246 OA
ATOM    719 'HO2   T A  33     -27.200  16.329  36.593  1.00  0.00     0.210 HD
ATOM    720  C1'   G A  31     -27.256  14.586  23.036  1.00  0.00     0.262 C 
ATOM    721  O2'   G A  31     -29.301  15.273  24.073  1.00  0.00    -0.388 OA
ATOM    722  N9    G A  31     -25.871  14.254  23.354  1.00  0.00    -0.293 N 
ATOM    723  C4    G A  31     -25.436  13.466  24.394  1.00  0.00     0.187 A 
ATOM    724  C8    G A  31     -24.743  14.664  22.684  1.00  0.00     0.214 A 
ATOM    725  N3    G A  31     -26.220  12.855  25.307  1.00  0.00    -0.044 NA
ATOM    726  C5    G A  31     -24.061  13.446  24.289  1.00  0.00     0.173 A 
ATOM    727  C2    G A  31     -25.511  12.168  26.184  1.00  0.00     0.703 A 
ATOM    728  N2    G A  31     -26.132  11.503  27.163  1.00  0.00    -0.233 N 
ATOM    729  N1    G A  31     -24.142  12.082  26.168  1.00  0.00    -0.153 N 
ATOM    730  H21   G A  31     -27.139  11.537  27.216  1.00  0.00     0.174 HD
ATOM    731  H22   G A  31     -25.603  10.975  27.840  1.00  0.00     0.174 HD
ATOM    732  C6    G A  31     -23.315  12.700  25.238  1.00  0.00     0.292 A 
ATOM    733  H1    G A  31     -23.692  11.533  26.882  1.00  0.00     0.187 HD
ATOM    734  O6    G A  31     -22.089  12.555  25.314  1.00  0.00    -0.265 OA
ATOM    735  N7    G A  31     -23.639  14.206  23.206  1.00  0.00    -0.234 NA
ATOM    736 'HO2   G A  31     -29.734  16.124  24.004  1.00  0.00     0.210 HD
ATOM    737  O2'   G A  30     -24.552  20.392  16.650  1.00  0.00    -0.388 OA
ATOM    738  C1'   G A  30     -23.594  18.203  16.751  1.00  0.00     0.262 C 
ATOM    739 'HO2   G A  30     -24.994  20.425  17.499  1.00  0.00     0.210 HD
ATOM    740  N9    G A  30     -22.340  18.231  16.004  1.00  0.00    -0.293 N 
ATOM    741  C8    G A  30     -22.140  17.847  14.700  1.00  0.00     0.214 A 
ATOM    742  C4    G A  30     -21.120  18.652  16.474  1.00  0.00     0.187 A 
ATOM    743  N7    G A  30     -20.904  17.990  14.305  1.00  0.00    -0.234 NA
ATOM    744  C5    G A  30     -20.248  18.498  15.418  1.00  0.00     0.173 A 
ATOM    745  C6    G A  30     -18.886  18.857  15.599  1.00  0.00     0.292 A 
ATOM    746  N1    G A  30     -18.650  19.330  16.885  1.00  0.00    -0.153 N 
ATOM    747  O6    G A  30     -17.958  18.798  14.787  1.00  0.00    -0.265 OA
ATOM    748  C2    G A  30     -19.597  19.442  17.870  1.00  0.00     0.703 A 
ATOM    749  H1    G A  30     -17.707  19.610  17.105  1.00  0.00     0.187 HD
ATOM    750  N2    G A  30     -19.173  19.917  19.044  1.00  0.00    -0.233 N 
ATOM    751  N3    G A  30     -20.866  19.113  17.716  1.00  0.00    -0.044 NA
ATOM    752  H21   G A  30     -19.835  20.018  19.800  1.00  0.00     0.174 HD
ATOM    753  H22   G A  30     -18.206  20.170  19.177  1.00  0.00     0.174 HD
ATOM    754  O2'   A A  29     -24.581  13.500  15.178  1.00  0.00    -0.388 OA
ATOM    755  C1'   A A  29     -22.613  13.217  13.848  1.00  0.00     0.262 C 
ATOM    756 'HO2   A A  29     -25.480  13.486  14.844  1.00  0.00     0.210 HD
ATOM    757  O4'   A A  29     -22.989  12.425  12.734  1.00  0.00    -0.353 OA
BRANCH 698 758
ATOM    758  O2'   T A  34     -22.110  16.554  40.456  1.00  0.00    -0.388 OA
ATOM    759 'HO2   T A  34     -21.786  15.697  40.179  1.00  0.00     0.210 HD
ENDBRANCH 698 758
BRANCH 696 760
ATOM    760  O3'   T A  34     -23.003  19.126  40.785  1.00  0.00    -0.279 OA
BRANCH 760 761
ATOM    761  P     C A  35     -24.030  18.610  41.913  1.00  0.00     0.408 P 
ATOM    762  OP1   C A  35     -25.162  19.570  41.948  1.00  0.00    -0.624 OA
ATOM    763  OP2   C A  35     -23.280  18.315  43.161  1.00  0.00    -0.624 OA
BRANCH 761 764
ATOM    764  O5'   C A  35     -24.575  17.228  41.333  1.00  0.00    -0.287 OA
BRANCH 764 765
ATOM    765  C5'   C A  35     -25.202  16.268  42.180  1.00  0.00     0.216 C 
BRANCH 765 766
ATOM    766  C4'   C A  35     -26.669  16.150  41.839  1.00  0.00     0.180 C 
ATOM    767  O4'   C A  35     -26.807  16.080  40.393  1.00  0.00    -0.353 OA
ATOM    768  C1'   C A  35     -27.781  15.109  40.048  1.00  0.00     0.264 C 
ATOM    769  N1    C A  35     -27.108  14.005  39.343  1.00  0.00    -0.278 N 
ATOM    770  C2'   C A  35     -28.474  14.683  41.341  1.00  0.00     0.199 C 
ATOM    771  C6    C A  35     -25.778  13.756  39.538  1.00  0.00     0.102 A 
ATOM    772  C2    C A  35     -27.852  13.211  38.467  1.00  0.00     0.352 A 
ATOM    773  C5    C A  35     -25.161  12.754  38.899  1.00  0.00     0.067 A 
ATOM    774  C4    C A  35     -25.945  11.962  38.010  1.00  0.00     0.128 A 
ATOM    775  N4    C A  35     -25.389  10.951  37.344  1.00  0.00    -0.384 N 
ATOM    776  N3    C A  35     -27.243  12.197  37.814  1.00  0.00    -0.177 NA
ATOM    777  H41   C A  35     -24.409  10.739  37.464  1.00  0.00     0.157 HD
ATOM    778  H42   C A  35     -25.956  10.400  36.717  1.00  0.00     0.157 HD
ATOM    779  O2    C A  35     -29.057  13.457  38.308  1.00  0.00    -0.244 OA
ATOM    780  C3'   C A  35     -27.361  14.896  42.359  1.00  0.00     0.198 C 
ATOM    781  O2'   C A  35     -29.563  15.555  41.582  1.00  0.00    -0.388 OA
ATOM    782  O3'   C A  35     -27.864  15.084  43.679  1.00  0.00    -0.279 OA
ATOM    783  P     A A  36     -27.457  14.053  44.845  1.00  0.00     0.408 P 
ATOM    784  OP2   A A  36     -25.997  14.176  45.082  1.00  0.00    -0.624 OA
ATOM    785  O5'   A A  36     -27.739  12.618  44.210  1.00  0.00    -0.287 OA
ATOM    786  OP1   A A  36     -28.404  14.267  45.969  1.00  0.00    -0.624 OA
ATOM    787  C5'   A A  36     -28.653  11.704  44.817  1.00  0.00     0.216 C 
ATOM    788  C4'   A A  36     -30.013  11.807  44.163  1.00  0.00     0.180 C 
ATOM    789  C3'   A A  36     -30.702  10.471  43.890  1.00  0.00     0.198 C 
ATOM    790  O4'   A A  36     -29.860  12.442  42.861  1.00  0.00    -0.353 OA
ATOM    791  O3'   A A  36     -31.580  10.109  44.953  1.00  0.00    -0.279 OA
ATOM    792  C2'   A A  36     -31.450  10.729  42.589  1.00  0.00     0.199 C 
ATOM    793  P     A A  37     -31.262   8.811  45.847  1.00  0.00     0.408 P 
ATOM    794  OP2   A A  37     -29.789   8.638  45.926  1.00  0.00    -0.624 OA
ATOM    795  OP1   A A  37     -32.051   8.941  47.100  1.00  0.00    -0.624 OA
ATOM    796  O5'   A A  37     -31.863   7.601  45.002  1.00  0.00    -0.287 OA
ATOM    797  O2'   A A  36     -32.651  11.443  42.819  1.00  0.00    -0.388 OA
ATOM    798  C1'   A A  36     -30.466  11.642  41.866  1.00  0.00     0.262 C 
ATOM    799 'HO2   A A  36     -32.829  11.380  43.758  1.00  0.00     0.210 HD
ATOM    800  N9    A A  36     -29.414  10.930  41.143  1.00  0.00    -0.294 N 
ATOM    801  C8    A A  36     -28.055  11.106  41.244  1.00  0.00     0.214 A 
ATOM    802  C4    A A  36     -29.594   9.933  40.215  1.00  0.00     0.167 A 
ATOM    803  N7    A A  36     -27.361  10.313  40.465  1.00  0.00    -0.236 NA
ATOM    804  C5    A A  36     -28.326   9.563  39.808  1.00  0.00     0.149 A 
ATOM    805  C6    A A  36     -28.238   8.542  38.846  1.00  0.00     0.155 A 
ATOM    806  N6    A A  36     -27.086   8.080  38.360  1.00  0.00    -0.382 N 
ATOM    807  N1    A A  36     -29.390   8.002  38.396  1.00  0.00    -0.222 NA
ATOM    808  H62   A A  36     -27.094   7.343  37.670  1.00  0.00     0.157 HD
ATOM    809  H61   A A  36     -26.212   8.469  38.685  1.00  0.00     0.157 HD
ATOM    810  C2    A A  36     -30.548   8.464  38.884  1.00  0.00     0.237 A 
ATOM    811  N3    A A  36     -30.760   9.418  39.788  1.00  0.00    -0.222 NA
ATOM    812 'HO2   C A  35     -29.870  15.371  42.470  1.00  0.00     0.210 HD
BRANCH 796 813
ATOM    813  C5'   A A  37     -33.210   7.169  45.194  1.00  0.00     0.216 C 
BRANCH 813 814
ATOM    814  C4'   A A  37     -33.330   5.687  44.913  1.00  0.00     0.180 C 
ATOM    815  O4'   A A  37     -33.496   5.481  43.486  1.00  0.00    -0.353 OA
ATOM    816  C1'   A A  37     -32.894   4.255  43.111  1.00  0.00     0.262 C 
ATOM    817  C2'   A A  37     -32.283   3.628  44.367  1.00  0.00     0.199 C 
ATOM    818  C3'   A A  37     -32.110   4.849  45.264  1.00  0.00     0.198 C 
BRANCH 816 819
ATOM    819  N9    A A  37     -31.913   4.524  42.060  1.00  0.00    -0.294 N 
ATOM    820  C8    A A  37     -31.540   5.737  41.539  1.00  0.00     0.214 A 
ATOM    821  N7    A A  37     -30.625   5.652  40.604  1.00  0.00    -0.236 NA
ATOM    822  C5    A A  37     -30.380   4.288  40.502  1.00  0.00     0.149 A 
ATOM    823  C6    A A  37     -29.511   3.540  39.688  1.00  0.00     0.155 A 
ATOM    824  C4    A A  37     -31.167   3.583  41.393  1.00  0.00     0.167 A 
ATOM    825  N6    A A  37     -28.691   4.081  38.787  1.00  0.00    -0.382 N 
ATOM    826  N1    A A  37     -29.512   2.199  39.836  1.00  0.00    -0.222 NA
ATOM    827  H61   A A  37     -28.674   5.082  38.661  1.00  0.00     0.157 HD
ATOM    828  H62   A A  37     -28.089   3.484  38.240  1.00  0.00     0.157 HD
ATOM    829  C2    A A  37     -30.333   1.654  40.744  1.00  0.00     0.237 A 
ATOM    830  N3    A A  37     -31.193   2.250  41.566  1.00  0.00    -0.222 NA
ENDBRANCH 816 819
BRANCH 817 831
ATOM    831  O2'   A A  37     -33.217   2.715  44.913  1.00  0.00    -0.388 OA
ATOM    832 'HO2   A A  37     -32.732   1.925  45.156  1.00  0.00     0.210 HD
ENDBRANCH 817 831
BRANCH 818 833
ATOM    833  O3'   A A  37     -32.090   4.516  46.650  1.00  0.00    -0.279 OA
BRANCH 833 834
ATOM    834  P     A A  38     -30.714   4.612  47.479  1.00  0.00     0.408 P 
ATOM    835  OP1   A A  38     -31.060   5.000  48.869  1.00  0.00    -0.624 OA
ATOM    836  OP2   A A  38     -29.763   5.446  46.699  1.00  0.00    -0.624 OA
BRANCH 834 837
ATOM    837  O5'   A A  38     -30.165   3.115  47.502  1.00  0.00    -0.287 OA
BRANCH 837 838
ATOM    838  C5'   A A  38     -28.956   2.785  48.187  1.00  0.00     0.216 C 
BRANCH 838 839
ATOM    839  C4'   A A  38     -29.209   1.681  49.189  1.00  0.00     0.180 C 
ATOM    840  C3'   A A  38     -28.000   0.801  49.499  1.00  0.00     0.198 C 
ATOM    841  C2'   A A  38     -28.631  -0.547  49.839  1.00  0.00     0.199 C 
ATOM    842  O2'   A A  38     -29.121  -0.598  51.165  1.00  0.00    -0.388 OA
ATOM    843  C1'   A A  38     -29.825  -0.567  48.886  1.00  0.00     0.262 C 
ATOM    844 'HO2   A A  38     -29.816   0.058  51.246  1.00  0.00     0.210 HD
ATOM    845  O4'   A A  38     -30.201   0.774  48.636  1.00  0.00    -0.353 OA
BRANCH 840 846
ATOM    846  O3'   A A  38     -27.167   1.292  50.561  1.00  0.00    -0.279 OA
ATOM    847  P     T A  39     -25.571   1.046  50.547  1.00  0.00     0.408 P 
ATOM    848  OP2   T A  39     -25.285  -0.070  51.485  1.00  0.00    -0.624 OA
ATOM    849  OP1   T A  39     -25.073   0.971  49.151  1.00  0.00    -0.624 OA
ATOM    850  O5'   T A  39     -24.977   2.381  51.182  1.00  0.00    -0.287 OA
ATOM    851  C5'   T A  39     -25.697   3.613  51.113  1.00  0.00     0.216 C 
ATOM    852  C4'   T A  39     -24.743   4.764  50.896  1.00  0.00     0.180 C 
ATOM    853  O4'   T A  39     -24.069   5.054  52.155  1.00  0.00    -0.353 OA
ATOM    854  C3'   T A  39     -23.629   4.510  49.882  1.00  0.00     0.198 C 
ATOM    855  C1'   T A  39     -22.673   4.926  51.987  1.00  0.00     0.264 C 
ATOM    856  C2'   T A  39     -22.472   4.044  50.760  1.00  0.00     0.199 C 
ATOM    857  N1    T A  39     -22.093   4.389  53.228  1.00  0.00    -0.280 N 
ATOM    858  O2'   T A  39     -21.217   4.357  50.180  1.00  0.00    -0.388 OA
ATOM    859 'HO2   T A  39     -21.299   4.204  49.238  1.00  0.00     0.210 HD
ATOM    860  C2    T A  39     -22.738   3.335  53.856  1.00  0.00     0.331 A 
ATOM    861  C6    T A  39     -20.937   4.924  53.750  1.00  0.00     0.104 A 
ATOM    862  N3    T A  39     -22.138   2.894  55.009  1.00  0.00    -0.275 N 
ATOM    863  O2    T A  39     -23.758   2.827  53.431  1.00  0.00    -0.246 OA
ATOM    864  H3    T A  39     -22.591   2.128  55.482  1.00  0.00     0.173 HD
ATOM    865  C4    T A  39     -20.989   3.382  55.584  1.00  0.00     0.250 A 
ATOM    866  O4    T A  39     -20.580   2.882  56.632  1.00  0.00    -0.268 OA
ATOM    867  C5    T A  39     -20.382   4.465  54.876  1.00  0.00     0.092 A 
ATOM    868  O3'   T A  39     -23.322   5.699  49.157  1.00  0.00    -0.279 OA
ATOM    869  P     C A  40     -22.811   5.605  47.635  1.00  0.00     0.408 P 
ATOM    870  OP2   C A  40     -23.722   6.415  46.785  1.00  0.00    -0.624 OA
ATOM    871  O5'   C A  40     -22.999   4.072  47.240  1.00  0.00    -0.287 OA
ATOM    872  OP1   C A  40     -21.355   5.900  47.638  1.00  0.00    -0.624 OA
ATOM    873  C5'   C A  40     -22.843   3.641  45.887  1.00  0.00     0.216 C 
ATOM    874  C4'   C A  40     -23.100   2.156  45.776  1.00  0.00     0.180 C 
ATOM    875  O4'   C A  40     -24.410   1.870  46.342  1.00  0.00    -0.353 OA
ATOM    876  C3'   C A  40     -23.135   1.623  44.345  1.00  0.00     0.198 C 
ATOM    877  C1'   C A  40     -25.209   1.207  45.384  1.00  0.00     0.264 C 
ATOM    878  N1    C A  40     -26.142   2.189  44.802  1.00  0.00    -0.278 N 
ATOM    879  C2'   C A  40     -24.243   0.574  44.387  1.00  0.00     0.199 C 
ATOM    880  C6    C A  40     -26.291   3.427  45.364  1.00  0.00     0.102 A 
ATOM    881  C2    C A  40     -26.876   1.839  43.663  1.00  0.00     0.352 A 
ATOM    882  C5    C A  40     -27.137   4.325  44.843  1.00  0.00     0.067 A 
ATOM    883  C4    C A  40     -27.871   3.942  43.684  1.00  0.00     0.128 A 
ATOM    884  N3    C A  40     -27.733   2.738  43.127  1.00  0.00    -0.177 NA
ATOM    885  N4    C A  40     -28.727   4.792  43.120  1.00  0.00    -0.384 N 
ATOM    886  H41   C A  40     -28.861   5.715  43.510  1.00  0.00     0.157 HD
ATOM    887  H42   C A  40     -29.243   4.508  42.299  1.00  0.00     0.157 HD
ATOM    888  O2    C A  40     -26.725   0.712  43.172  1.00  0.00    -0.244 OA
ATOM    889  O2'   C A  40     -23.773  -0.649  44.923  1.00  0.00    -0.388 OA
ATOM    890 'HO2   C A  40     -22.817  -0.608  44.908  1.00  0.00     0.210 HD
ATOM    891  O3'   C A  40     -21.880   1.063  43.967  1.00  0.00    -0.279 OA
ATOM    892  P     C A  41     -20.960   1.821  42.886  1.00  0.00     0.408 P 
ATOM    893  O5'   C A  41     -21.870   1.882  41.579  1.00  0.00    -0.287 OA
ATOM    894  OP2   C A  41     -20.738   3.211  43.357  1.00  0.00    -0.624 OA
ATOM    895  OP1   C A  41     -19.793   0.947  42.600  1.00  0.00    -0.624 OA
ATOM    896  C5'   C A  41     -22.263   0.690  40.901  1.00  0.00     0.216 C 
ATOM    897  C4'   C A  41     -22.975   1.037  39.614  1.00  0.00     0.180 C 
ATOM    898  O4'   C A  41     -24.293   1.564  39.935  1.00  0.00    -0.353 OA
ATOM    899  C3'   C A  41     -22.317   2.125  38.775  1.00  0.00     0.198 C 
ATOM    900  C1'   C A  41     -24.581   2.671  39.098  1.00  0.00     0.264 C 
ATOM    901  N1    C A  41     -24.637   3.884  39.931  1.00  0.00    -0.278 N 
ATOM    902  C2'   C A  41     -23.500   2.717  38.022  1.00  0.00     0.199 C 
ATOM    903  C2    C A  41     -25.172   5.052  39.382  1.00  0.00     0.352 A 
ATOM    904  C6    C A  41     -24.171   3.877  41.216  1.00  0.00     0.102 A 
ATOM    905  N3    C A  41     -25.222   6.174  40.134  1.00  0.00    -0.177 NA
ATOM    906  O2    C A  41     -25.588   5.031  38.216  1.00  0.00    -0.244 OA
ATOM    907  C4    C A  41     -24.764   6.158  41.387  1.00  0.00     0.128 A 
ATOM    908  N4    C A  41     -24.835   7.288  42.088  1.00  0.00    -0.384 N 
ATOM    909  C5    C A  41     -24.214   4.981  41.974  1.00  0.00     0.067 A 
ATOM    910  H41   C A  41     -24.500   7.319  43.041  1.00  0.00     0.157 HD
ATOM    911  H42   C A  41     -25.229   8.117  41.664  1.00  0.00     0.157 HD
ATOM    912  O2'   C A  41     -23.892   1.886  36.945  1.00  0.00    -0.388 OA
ATOM    913 'HO2   C A  41     -23.156   1.301  36.764  1.00  0.00     0.210 HD
ATOM    914  O3'   C A  41     -21.326   1.590  37.901  1.00  0.00    -0.279 OA
ATOM    915  P     C A  42     -20.144   2.535  37.360  1.00  0.00     0.408 P 
ATOM    916  OP2   C A  42     -19.570   3.277  38.512  1.00  0.00    -0.624 OA
ATOM    917  O5'   C A  42     -20.889   3.581  36.417  1.00  0.00    -0.287 OA
ATOM    918  OP1   C A  42     -19.258   1.695  36.514  1.00  0.00    -0.624 OA
ATOM    919  C5'   C A  42     -21.545   3.157  35.222  1.00  0.00     0.216 C 
ATOM    920  C4'   C A  42     -22.026   4.356  34.437  1.00  0.00     0.180 C 
ATOM    921  O4'   C A  42     -23.145   4.963  35.138  1.00  0.00    -0.353 OA
ATOM    922  C3'   C A  42     -21.018   5.485  34.285  1.00  0.00     0.198 C 
ATOM    923  C1'   C A  42     -23.083   6.373  35.008  1.00  0.00     0.264 C 
ATOM    924  C2'   C A  42     -21.913   6.700  34.078  1.00  0.00     0.199 C 
BRANCH 923 925
ATOM    925  N1    C A  42     -22.953   6.958  36.352  1.00  0.00    -0.278 N 
ATOM    926  C6    C A  42     -21.874   6.668  37.143  1.00  0.00     0.102 A 
ATOM    927  C5    C A  42     -21.756   7.193  38.369  1.00  0.00     0.067 A 
ATOM    928  C4    C A  42     -22.793   8.063  38.812  1.00  0.00     0.128 A 
ATOM    929  N3    C A  42     -23.846   8.355  38.048  1.00  0.00    -0.177 NA
ATOM    930  N4    C A  42     -22.734   8.614  40.023  1.00  0.00    -0.384 N 
ATOM    931  C2    C A  42     -23.953   7.817  36.813  1.00  0.00     0.352 A 
ATOM    932  O2    C A  42     -24.919   8.066  36.077  1.00  0.00    -0.244 OA
ATOM    933  H42   C A  42     -23.477   9.227  40.326  1.00  0.00     0.157 HD
ATOM    934  H41   C A  42     -21.955   8.419  40.635  1.00  0.00     0.157 HD
ENDBRANCH 923 925
BRANCH 924 935
ATOM    935  O2'   C A  42     -22.395   6.760  32.748  1.00  0.00    -0.388 OA
ATOM    936 'HO2   C A  42     -22.151   5.934  32.331  1.00  0.00     0.210 HD
ENDBRANCH 924 935
BRANCH 922 937
ATOM    937  O3'   C A  42     -20.143   5.261  33.181  1.00  0.00    -0.279 OA
BRANCH 937 938
ATOM    938  P     G A  43     -18.551   5.269  33.408  1.00  0.00     0.408 P 
ATOM    939  OP2   G A  43     -18.268   4.780  34.782  1.00  0.00    -0.624 OA
ATOM    940  OP1   G A  43     -17.937   4.581  32.244  1.00  0.00    -0.624 OA
BRANCH 938 941
ATOM    941  O5'   G A  43     -18.157   6.811  33.336  1.00  0.00    -0.287 OA
BRANCH 941 942
ATOM    942  C5'   G A  43     -17.442   7.336  32.218  1.00  0.00     0.216 C 
BRANCH 942 943
ATOM    943  C4'   G A  43     -16.656   8.560  32.630  1.00  0.00     0.180 C 
ATOM    944  O4'   G A  43     -17.538   9.713  32.593  1.00  0.00    -0.353 OA
ATOM    945  C1'   G A  43     -17.231  10.586  33.666  1.00  0.00     0.262 C 
ATOM    946  C2'   G A  43     -16.018  10.019  34.402  1.00  0.00     0.199 C 
ATOM    947  C3'   G A  43     -16.108   8.538  34.050  1.00  0.00     0.198 C 
ATOM    948  O2'   G A  43     -14.846  10.603  33.863  1.00  0.00    -0.388 OA
ATOM    949  O3'   G A  43     -14.835   7.897  34.110  1.00  0.00    -0.279 OA
ATOM    950  P     G A  44     -14.716   6.397  34.679  1.00  0.00     0.408 P 
ATOM    951  OP2   G A  44     -15.582   6.273  35.881  1.00  0.00    -0.624 OA
ATOM    952  O5'   G A  44     -13.197   6.281  35.147  1.00  0.00    -0.287 OA
ATOM    953  OP1   G A  44     -14.913   5.471  33.535  1.00  0.00    -0.624 OA
ATOM    954  C5'   G A  44     -12.238   7.276  34.785  1.00  0.00     0.216 C 
ATOM    955  C4'   G A  44     -11.001   7.149  35.644  1.00  0.00     0.180 C 
ATOM    956  C3'   G A  44     -10.190   5.872  35.426  1.00  0.00     0.198 C 
ATOM    957  O4'   G A  44     -11.406   7.136  37.043  1.00  0.00    -0.353 OA
ATOM    958  C2'   G A  44     -10.609   4.978  36.589  1.00  0.00     0.199 C 
ATOM    959  C1'   G A  44     -10.851   6.011  37.684  1.00  0.00     0.262 C 
ATOM    960  N9    G A  44     -11.769   5.578  38.735  1.00  0.00    -0.293 N 
ATOM    961  C4    G A  44     -12.621   4.499  38.689  1.00  0.00     0.187 A 
ATOM    962  C8    G A  44     -11.952   6.162  39.964  1.00  0.00     0.214 A 
ATOM    963  N3    G A  44     -12.764   3.643  37.655  1.00  0.00    -0.044 NA
ATOM    964  C5    G A  44     -13.271   4.495  39.906  1.00  0.00     0.173 A 
ATOM    965  C2    G A  44     -13.658   2.706  37.912  1.00  0.00     0.703 A 
ATOM    966  N1    G A  44     -14.358   2.611  39.087  1.00  0.00    -0.153 N 
ATOM    967  N2    G A  44     -13.920   1.774  36.992  1.00  0.00    -0.233 N 
ATOM    968  C6    G A  44     -14.229   3.480  40.164  1.00  0.00     0.292 A 
ATOM    969  H1    G A  44     -15.017   1.855  39.182  1.00  0.00     0.187 HD
ATOM    970  O6    G A  44     -14.914   3.303  41.179  1.00  0.00    -0.265 OA
ATOM    971  H22   G A  44     -14.600   1.051  37.172  1.00  0.00     0.174 HD
ATOM    972  H21   G A  44     -13.428   1.803  36.110  1.00  0.00     0.174 HD
ATOM    973  N7    G A  44     -12.840   5.551  40.699  1.00  0.00    -0.234 NA
ATOM    974 'HO2   G A  43     -14.216   9.893  33.737  1.00  0.00     0.210 HD
BRANCH 945 975
ATOM    975  N9    G A  43     -18.417  10.716  34.507  1.00  0.00    -0.293 N 
ATOM    976  C4    G A  43     -19.721  10.536  34.113  1.00  0.00     0.187 A 
ATOM    977  N3    G A  43     -20.136  10.206  32.873  1.00  0.00    -0.044 NA
ATOM    978  C5    G A  43     -20.479  10.764  35.242  1.00  0.00     0.173 A 
ATOM    979  C2    G A  43     -21.451  10.106  32.803  1.00  0.00     0.703 A 
ATOM    980  N2    G A  43     -22.031   9.787  31.644  1.00  0.00    -0.233 N 
ATOM    981  N1    G A  43     -22.294  10.311  33.864  1.00  0.00    -0.153 N 
ATOM    982  H22   G A  43     -23.033   9.695  31.576  1.00  0.00     0.174 HD
ATOM    983  H21   G A  43     -21.446   9.629  30.835  1.00  0.00     0.174 HD
ATOM    984  C6    G A  43     -21.891  10.650  35.151  1.00  0.00     0.292 A 
ATOM    985  H1    G A  43     -23.285  10.209  33.706  1.00  0.00     0.187 HD
ATOM    986  O6    G A  43     -22.737  10.809  36.037  1.00  0.00    -0.265 OA
ATOM    987  N7    G A  43     -19.667  11.080  36.324  1.00  0.00    -0.234 NA
ATOM    988  C8    G A  43     -18.457  11.041  35.840  1.00  0.00     0.214 A 
ENDBRANCH 945 975
BRANCH 956 989
ATOM    989  O3'   G A  44      -8.789   6.138  35.433  1.00  0.00    -0.279 OA
BRANCH 989 990
ATOM    990  P     A A  45      -7.893   5.744  34.156  1.00  0.00     0.408 P 
ATOM    991  O5'   A A  45      -7.953   4.153  34.119  1.00  0.00    -0.287 OA
ATOM    992  C5'   A A  45      -7.212   3.410  33.149  1.00  0.00     0.216 C 
ATOM    993  C4'   A A  45      -7.985   2.180  32.731  1.00  0.00     0.180 C 
ATOM    994  O4'   A A  45      -7.361   1.013  33.339  1.00  0.00    -0.353 OA
ATOM    995  C3'   A A  45      -9.442   2.138  33.182  1.00  0.00     0.198 C 
ATOM    996  C1'   A A  45      -8.346   0.224  33.977  1.00  0.00     0.262 C 
ATOM    997  C2'   A A  45      -9.685   0.649  33.384  1.00  0.00     0.199 C 
ATOM    998  N9    A A  45      -8.243   0.437  35.420  1.00  0.00    -0.294 N 
ATOM    999  O2'   A A  45      -9.868  -0.017  32.147  1.00  0.00    -0.388 OA
ATOM   1000 'HO2   A A  45     -10.089   0.655  31.501  1.00  0.00     0.210 HD
ATOM   1001  C4    A A  45      -8.805  -0.336  36.408  1.00  0.00     0.167 A 
ATOM   1002  C8    A A  45      -7.571   1.443  36.069  1.00  0.00     0.214 A 
ATOM   1003  C5    A A  45      -8.438   0.256  37.603  1.00  0.00     0.149 A 
ATOM   1004  N3    A A  45      -9.559  -1.438  36.253  1.00  0.00    -0.222 NA
ATOM   1005  N7    A A  45      -7.657   1.379  37.375  1.00  0.00    -0.236 NA
ATOM   1006  C6    A A  45      -8.896  -0.354  38.783  1.00  0.00     0.155 A 
ATOM   1007  N6    A A  45      -8.627   0.107  40.006  1.00  0.00    -0.382 N 
ATOM   1008  N1    A A  45      -9.651  -1.466  38.664  1.00  0.00    -0.222 NA
ATOM   1009  H62   A A  45      -8.979  -0.370  40.825  1.00  0.00     0.157 HD
ATOM   1010  H61   A A  45      -8.065   0.939  40.112  1.00  0.00     0.157 HD
ATOM   1011  C2    A A  45      -9.928  -1.924  37.436  1.00  0.00     0.237 A 
ATOM   1012  O3'   A A  45     -10.306   2.708  32.203  1.00  0.00    -0.279 OA
ATOM   1013  OP1   A A  45      -6.492   6.144  34.446  1.00  0.00    -0.624 OA
ATOM   1014  OP2   A A  45      -8.566   6.266  32.940  1.00  0.00    -0.624 OA
BRANCH 1012 1015
ATOM   1015  P     C A  46     -11.614   3.521  32.668  1.00  0.00     0.408 P 
ATOM   1016  OP1   C A  46     -11.437   4.932  32.241  1.00  0.00    -0.624 OA
ATOM   1017  OP2   C A  46     -11.880   3.214  34.097  1.00  0.00    -0.624 OA
BRANCH 1015 1018
ATOM   1018  O5'   C A  46     -12.789   2.884  31.799  1.00  0.00    -0.287 OA
BRANCH 1018 1019
ATOM   1019  C5'   C A  46     -13.675   3.713  31.049  1.00  0.00     0.216 C 
BRANCH 1019 1020
ATOM   1020  C4'   C A  46     -13.735   3.248  29.613  1.00  0.00     0.180 C 
ATOM   1021  O4'   C A  46     -13.018   4.193  28.771  1.00  0.00    -0.353 OA
ATOM   1022  C1'   C A  46     -12.355   3.495  27.729  1.00  0.00     0.264 C 
ATOM   1023  C2'   C A  46     -12.766   2.027  27.834  1.00  0.00     0.199 C 
ATOM   1024  C3'   C A  46     -13.059   1.915  29.323  1.00  0.00     0.198 C 
BRANCH 1022 1025
ATOM   1025  N1    C A  46     -10.905   3.715  27.865  1.00  0.00    -0.278 N 
ATOM   1026  C6    C A  46     -10.378   4.230  29.018  1.00  0.00     0.102 A 
ATOM   1027  C5    C A  46      -9.061   4.437  29.144  1.00  0.00     0.067 A 
ATOM   1028  C4    C A  46      -8.235   4.097  28.034  1.00  0.00     0.128 A 
ATOM   1029  N3    C A  46      -8.739   3.590  26.907  1.00  0.00    -0.177 NA
ATOM   1030  N4    C A  46      -6.917   4.281  28.097  1.00  0.00    -0.384 N 
ATOM   1031  C2    C A  46     -10.070   3.389  26.793  1.00  0.00     0.352 A 
ATOM   1032  O2    C A  46     -10.571   2.923  25.760  1.00  0.00    -0.244 OA
ATOM   1033  H42   C A  46      -6.338   4.033  27.306  1.00  0.00     0.157 HD
ATOM   1034  H41   C A  46      -6.497   4.663  28.932  1.00  0.00     0.157 HD
ENDBRANCH 1022 1025
BRANCH 1023 1035
ATOM   1035  O2'   C A  46     -13.937   1.826  27.066  1.00  0.00    -0.388 OA
ATOM   1036 'HO2   C A  46     -13.969   2.536  26.425  1.00  0.00     0.210 HD
ENDBRANCH 1023 1035
BRANCH 1024 1037
ATOM   1037  O3'   C A  46     -13.905   0.812  29.636  1.00  0.00    -0.279 OA
BRANCH 1037 1038
ATOM   1038  P     G A  47     -13.306  -0.454  30.426  1.00  0.00     0.408 P 
ATOM   1039  OP2   G A  47     -14.168  -1.632  30.155  1.00  0.00    -0.624 OA
ATOM   1040  OP1   G A  47     -11.856  -0.521  30.114  1.00  0.00    -0.624 OA
BRANCH 1038 1041
ATOM   1041  O5'   G A  47     -13.464  -0.061  31.962  1.00  0.00    -0.287 OA
BRANCH 1041 1042
ATOM   1042  C5'   G A  47     -13.925  -1.015  32.917  1.00  0.00     0.216 C 
BRANCH 1042 1043
ATOM   1043  C4'   G A  47     -14.952  -0.389  33.832  1.00  0.00     0.180 C 
ATOM   1044  O4'   G A  47     -16.216  -0.255  33.128  1.00  0.00    -0.353 OA
ATOM   1045  C1'   G A  47     -17.284  -0.358  34.055  1.00  0.00     0.262 C 
ATOM   1046  C2'   G A  47     -16.671  -0.585  35.438  1.00  0.00     0.199 C 
ATOM   1047  N9    G A  47     -18.168  -1.439  33.631  1.00  0.00    -0.293 N 
ATOM   1048  O2'   G A  47     -16.507   0.670  36.072  1.00  0.00    -0.388 OA
ATOM   1049  C3'   G A  47     -15.327  -1.195  35.064  1.00  0.00     0.198 C 
ATOM   1050 'HO2   G A  47     -15.612   0.690  36.411  1.00  0.00     0.210 HD
ATOM   1051  O3'   G A  47     -14.359  -1.070  36.103  1.00  0.00    -0.279 OA
ATOM   1052  P     A A  48     -14.271  -2.194  37.249  1.00  0.00     0.408 P 
ATOM   1053  OP1   A A  48     -13.193  -1.783  38.186  1.00  0.00    -0.624 OA
ATOM   1054  O5'   A A  48     -15.663  -2.075  38.017  1.00  0.00    -0.287 OA
ATOM   1055  OP2   A A  48     -14.206  -3.528  36.601  1.00  0.00    -0.624 OA
ATOM   1056  C5'   A A  48     -16.014  -0.883  38.714  1.00  0.00     0.216 C 
ATOM   1057  C4'   A A  48     -17.439  -0.965  39.213  1.00  0.00     0.180 C 
ATOM   1058  O4'   A A  48     -18.345  -1.150  38.095  1.00  0.00    -0.353 OA
ATOM   1059  C3'   A A  48     -17.765  -2.147  40.110  1.00  0.00     0.198 C 
ATOM   1060  C1'   A A  48     -19.507  -1.830  38.544  1.00  0.00     0.262 C 
ATOM   1061  N9    A A  48     -19.738  -2.985  37.677  1.00  0.00    -0.294 N 
ATOM   1062  C2'   A A  48     -19.285  -2.206  40.011  1.00  0.00     0.199 C 
ATOM   1063  C8    A A  48     -18.917  -3.497  36.704  1.00  0.00     0.214 A 
ATOM   1064  C4    A A  48     -20.853  -3.790  37.688  1.00  0.00     0.167 A 
ATOM   1065  N7    A A  48     -19.409  -4.550  36.096  1.00  0.00    -0.236 NA
ATOM   1066  C5    A A  48     -20.638  -4.746  36.713  1.00  0.00     0.149 A 
ATOM   1067  C6    A A  48     -21.650  -5.704  36.524  1.00  0.00     0.155 A 
ATOM   1068  N6    A A  48     -21.586  -6.683  35.621  1.00  0.00    -0.382 N 
ATOM   1069  N1    A A  48     -22.749  -5.620  37.305  1.00  0.00    -0.222 NA
ATOM   1070  H61   A A  48     -20.774  -6.763  35.026  1.00  0.00     0.157 HD
ATOM   1071  H62   A A  48     -22.344  -7.345  35.533  1.00  0.00     0.157 HD
ATOM   1072  C2    A A  48     -22.816  -4.635  38.211  1.00  0.00     0.237 A 
ATOM   1073  N3    A A  48     -21.932  -3.676  38.480  1.00  0.00    -0.222 NA
ATOM   1074  O2'   A A  48     -19.889  -1.218  40.825  1.00  0.00    -0.388 OA
ATOM   1075 'HO2   A A  48     -19.233  -0.954  41.470  1.00  0.00     0.210 HD
ATOM   1076  O3'   A A  48     -17.310  -1.947  41.445  1.00  0.00    -0.279 OA
ATOM   1077  P     G A  49     -17.090  -3.213  42.414  1.00  0.00     0.408 P 
ATOM   1078  OP1   G A  49     -16.357  -2.729  43.611  1.00  0.00    -0.624 OA
ATOM   1079  OP2   G A  49     -16.531  -4.333  41.615  1.00  0.00    -0.624 OA
ATOM   1080  O5'   G A  49     -18.565  -3.614  42.866  1.00  0.00    -0.287 OA
ATOM   1081  C5'   G A  49     -19.381  -2.699  43.594  1.00  0.00     0.216 C 
ATOM   1082  C4'   G A  49     -20.704  -3.338  43.944  1.00  0.00     0.180 C 
ATOM   1083  O4'   G A  49     -21.494  -3.508  42.736  1.00  0.00    -0.353 OA
ATOM   1084  C3'   G A  49     -20.635  -4.744  44.520  1.00  0.00     0.198 C 
ATOM   1085  C1'   G A  49     -22.302  -4.668  42.859  1.00  0.00     0.262 C 
ATOM   1086  C2'   G A  49     -22.038  -5.266  44.242  1.00  0.00     0.199 C 
ATOM   1087  N9    G A  49     -21.977  -5.578  41.765  1.00  0.00    -0.293 N 
ATOM   1088  O2'   G A  49     -22.973  -4.727  45.157  1.00  0.00    -0.388 OA
ATOM   1089 'HO2   G A  49     -22.469  -4.406  45.905  1.00  0.00     0.210 HD
ATOM   1090  C8    G A  49     -20.849  -5.569  40.981  1.00  0.00     0.214 A 
ATOM   1091  C4    G A  49     -22.748  -6.624  41.321  1.00  0.00     0.187 A 
ATOM   1092  N7    G A  49     -20.839  -6.515  40.083  1.00  0.00    -0.234 NA
ATOM   1093  C5    G A  49     -22.034  -7.192  40.286  1.00  0.00     0.173 A 
ATOM   1094  C6    G A  49     -22.583  -8.317  39.616  1.00  0.00     0.292 A 
ATOM   1095  O6    G A  49     -22.107  -8.961  38.673  1.00  0.00    -0.265 OA
ATOM   1096  N1    G A  49     -23.814  -8.678  40.148  1.00  0.00    -0.153 N 
ATOM   1097  H1    G A  49     -24.282  -9.470  39.738  1.00  0.00     0.187 HD
ATOM   1098  C2    G A  49     -24.441  -8.039  41.188  1.00  0.00     0.703 A 
ATOM   1099  N3    G A  49     -23.945  -6.992  41.819  1.00  0.00    -0.044 NA
ATOM   1100  N2    G A  49     -25.623  -8.537  41.557  1.00  0.00    -0.233 N 
ATOM   1101  H21   G A  49     -26.127  -8.105  42.317  1.00  0.00     0.174 HD
ATOM   1102  H22   G A  49     -26.009  -9.341  41.081  1.00  0.00     0.174 HD
ATOM   1103  O3'   G A  49     -20.319  -4.740  45.909  1.00  0.00    -0.279 OA
ATOM   1104  P     C A  50     -19.640  -6.036  46.576  1.00  0.00     0.408 P 
ATOM   1105  OP1   C A  50     -19.527  -5.776  48.034  1.00  0.00    -0.624 OA
ATOM   1106  OP2   C A  50     -18.424  -6.385  45.797  1.00  0.00    -0.624 OA
ATOM   1107  O5'   C A  50     -20.716  -7.192  46.359  1.00  0.00    -0.287 OA
ATOM   1108  C5'   C A  50     -21.978  -7.153  47.023  1.00  0.00     0.216 C 
ATOM   1109  C4'   C A  50     -22.884  -8.240  46.493  1.00  0.00     0.180 C 
ATOM   1110  O4'   C A  50     -23.029  -8.100  45.057  1.00  0.00    -0.353 OA
ATOM   1111  C3'   C A  50     -22.380  -9.666  46.649  1.00  0.00     0.198 C 
ATOM   1112  C1'   C A  50     -23.275  -9.374  44.483  1.00  0.00     0.264 C 
ATOM   1113  N1    C A  50     -22.290  -9.610  43.414  1.00  0.00    -0.278 N 
ATOM   1114  C2'   C A  50     -23.208 -10.409  45.609  1.00  0.00     0.199 C 
ATOM   1115  C6    C A  50     -21.190  -8.808  43.278  1.00  0.00     0.102 A 
ATOM   1116  C2    C A  50     -22.497 -10.676  42.535  1.00  0.00     0.352 A 
ATOM   1117  C5    C A  50     -20.296  -9.023  42.305  1.00  0.00     0.067 A 
ATOM   1118  C4    C A  50     -20.533 -10.118  41.425  1.00  0.00     0.128 A 
ATOM   1119  N4    C A  50     -19.680 -10.385  40.437  1.00  0.00    -0.384 N 
ATOM   1120  N3    C A  50     -21.601 -10.907  41.552  1.00  0.00    -0.177 NA
ATOM   1121  H42   C A  50     -19.862 -11.162  39.818  1.00  0.00     0.157 HD
ATOM   1122  H41   C A  50     -18.858  -9.812  40.305  1.00  0.00     0.157 HD
ATOM   1123  O2    C A  50     -23.501 -11.388  42.679  1.00  0.00    -0.244 OA
ATOM   1124  O2'   C A  50     -24.521 -10.650  46.078  1.00  0.00    -0.388 OA
ATOM   1125 'HO2   C A  50     -24.515 -10.470  47.018  1.00  0.00     0.210 HD
ATOM   1126  O3'   C A  50     -22.585 -10.164  47.968  1.00  0.00    -0.279 OA
ATOM   1127  P     C A  51     -21.708 -11.406  48.498  1.00  0.00     0.408 P 
ATOM   1128  OP1   C A  51     -22.095 -11.652  49.910  1.00  0.00    -0.624 OA
ATOM   1129  OP2   C A  51     -20.283 -11.151  48.162  1.00  0.00    -0.624 OA
ATOM   1130  O5'   C A  51     -22.210 -12.637  47.621  1.00  0.00    -0.287 OA
ATOM   1131  C5'   C A  51     -23.569 -13.069  47.672  1.00  0.00     0.216 C 
ATOM   1132  C4'   C A  51     -23.768 -14.285  46.796  1.00  0.00     0.180 C 
ATOM   1133  O4'   C A  51     -23.668 -13.893  45.402  1.00  0.00    -0.353 OA
ATOM   1134  C3'   C A  51     -22.722 -15.380  46.938  1.00  0.00     0.198 C 
ATOM   1135  C1'   C A  51     -23.124 -14.963  44.646  1.00  0.00     0.264 C 
ATOM   1136  N1    C A  51     -21.923 -14.477  43.947  1.00  0.00    -0.278 N 
ATOM   1137  C2'   C A  51     -22.846 -16.119  45.610  1.00  0.00     0.199 C 
ATOM   1138  C6    C A  51     -21.236 -13.388  44.405  1.00  0.00     0.102 A 
ATOM   1139  C2    C A  51     -21.494 -15.150  42.802  1.00  0.00     0.352 A 
ATOM   1140  C5    C A  51     -20.148 -12.938  43.766  1.00  0.00     0.067 A 
ATOM   1141  C4    C A  51     -19.736 -13.643  42.597  1.00  0.00     0.128 A 
ATOM   1142  N4    C A  51     -18.665 -13.243  41.915  1.00  0.00    -0.384 N 
ATOM   1143  N3    C A  51     -20.397 -14.710  42.147  1.00  0.00    -0.177 NA
ATOM   1144  H41   C A  51     -18.134 -12.440  42.217  1.00  0.00     0.157 HD
ATOM   1145  H42   C A  51     -18.389 -13.752  41.085  1.00  0.00     0.157 HD
ATOM   1146  O2    C A  51     -22.131 -16.139  42.410  1.00  0.00    -0.244 OA
ATOM   1147  O2'   C A  51     -23.965 -16.985  45.610  1.00  0.00    -0.388 OA
ATOM   1148 'HO2   C A  51     -24.417 -16.853  46.444  1.00  0.00     0.210 HD
ATOM   1149  O3'   C A  51     -22.988 -16.224  48.056  1.00  0.00    -0.279 OA
ATOM   1150  P     C A  52     -21.802 -17.102  48.696  1.00  0.00     0.408 P 
ATOM   1151  OP1   C A  52     -22.315 -17.692  49.958  1.00  0.00    -0.624 OA
ATOM   1152  OP2   C A  52     -20.565 -16.280  48.719  1.00  0.00    -0.624 OA
ATOM   1153  O5'   C A  52     -21.588 -18.286  47.650  1.00  0.00    -0.287 OA
ATOM   1154  C5'   C A  52     -22.659 -19.161  47.300  1.00  0.00     0.216 C 
ATOM   1155  C4'   C A  52     -22.206 -20.144  46.245  1.00  0.00     0.180 C 
ATOM   1156  O4'   C A  52     -22.111 -19.456  44.970  1.00  0.00    -0.353 OA
ATOM   1157  C3'   C A  52     -20.823 -20.742  46.457  1.00  0.00     0.182 C 
ATOM   1158  C1'   C A  52     -21.025 -19.978  44.226  1.00  0.00     0.264 C 
ATOM   1159  N1    C A  52     -20.093 -18.877  43.935  1.00  0.00    -0.278 N 
ATOM   1160  C2'   C A  52     -20.402 -21.115  45.039  1.00  0.00     0.198 C 
ATOM   1161  C6    C A  52     -19.827 -17.917  44.872  1.00  0.00     0.102 A 
ATOM   1162  C2    C A  52     -19.482 -18.825  42.679  1.00  0.00     0.352 A 
ATOM   1163  C5    C A  52     -18.982 -16.911  44.609  1.00  0.00     0.067 A 
ATOM   1164  C4    C A  52     -18.376 -16.882  43.320  1.00  0.00     0.128 A 
ATOM   1165  N4    C A  52     -17.529 -15.906  42.999  1.00  0.00    -0.384 N 
ATOM   1166  N3    C A  52     -18.628 -17.815  42.401  1.00  0.00    -0.177 NA
ATOM   1167  H41   C A  52     -17.310 -15.181  43.665  1.00  0.00     0.157 HD
ATOM   1168  H42   C A  52     -17.110 -15.898  42.078  1.00  0.00     0.157 HD
ATOM   1169  O2    C A  52     -19.737 -19.710  41.851  1.00  0.00    -0.244 OA
ATOM   1170  O2'   C A  52     -20.992 -22.337  44.635  1.00  0.00    -0.388 OA
ATOM   1171 'HO2   C A  52     -21.118 -22.863  45.426  1.00  0.00     0.210 HD
ATOM   1172  O3'   C A  52     -20.850 -21.873  47.334  1.00  0.00    -0.390 OA
ATOM   1173 'HO3   C A  52     -21.351 -21.616  48.111  1.00  0.00     0.210 HD
ATOM   1174  C4    G A  47     -19.451  -1.660  34.070  1.00  0.00     0.187 A 
ATOM   1175  C8    G A  47     -17.892  -2.438  32.730  1.00  0.00     0.214 A 
ATOM   1176  N3    G A  47     -20.121  -0.910  34.969  1.00  0.00    -0.044 NA
ATOM   1177  C5    G A  47     -19.877  -2.791  33.404  1.00  0.00     0.173 A 
ATOM   1178  C2    G A  47     -21.335  -1.377  35.195  1.00  0.00     0.703 A 
ATOM   1179  N2    G A  47     -22.133  -0.752  36.062  1.00  0.00    -0.233 N 
ATOM   1180  N1    G A  47     -21.855  -2.491  34.587  1.00  0.00    -0.153 N 
ATOM   1181  H21   G A  47     -21.801   0.073  36.538  1.00  0.00     0.174 HD
ATOM   1182  H22   G A  47     -23.063  -1.107  36.246  1.00  0.00     0.174 HD
ATOM   1183  C6    G A  47     -21.186  -3.280  33.658  1.00  0.00     0.292 A 
ATOM   1184  H1    G A  47     -22.795  -2.763  34.830  1.00  0.00     0.187 HD
ATOM   1185  O6    G A  47     -21.750  -4.266  33.169  1.00  0.00    -0.265 OA
ATOM   1186  N7    G A  47     -18.884  -3.269  32.560  1.00  0.00    -0.234 NA
ENDBRANCH 1042 1043
ENDBRANCH 1041 1042
ENDBRANCH 1038 1041
ENDBRANCH 1037 1038
ENDBRANCH 1024 1037
ENDBRANCH 1019 1020
ENDBRANCH 1018 1019
ENDBRANCH 1015 1018
ENDBRANCH 1012 1015
ENDBRANCH 989 990
ENDBRANCH 956 989
BRANCH 958 1187
ATOM   1187  O2'   G A  44      -9.547   4.131  36.990  1.00  0.00    -0.388 OA
ATOM   1188 'HO2   G A  44      -9.869   3.627  37.738  1.00  0.00     0.210 HD
ENDBRANCH 958 1187
ENDBRANCH 942 943
ENDBRANCH 941 942
ENDBRANCH 938 941
ENDBRANCH 937 938
ENDBRANCH 922 937
ENDBRANCH 840 846
BRANCH 843 1189
ATOM   1189  N9    A A  38     -29.541  -1.211  47.604  1.00  0.00    -0.294 N 
ATOM   1190  C4    A A  38     -29.841  -0.712  46.359  1.00  0.00     0.167 A 
ATOM   1191  N3    A A  38     -30.448   0.452  46.073  1.00  0.00    -0.222 NA
ATOM   1192  C5    A A  38     -29.392  -1.657  45.455  1.00  0.00     0.149 A 
ATOM   1193  C2    A A  38     -30.574   0.605  44.757  1.00  0.00     0.237 A 
ATOM   1194  N1    A A  38     -30.192  -0.212  43.770  1.00  0.00    -0.222 NA
ATOM   1195  C6    A A  38     -29.586  -1.375  44.091  1.00  0.00     0.155 A 
ATOM   1196  N6    A A  38     -29.207  -2.188  43.104  1.00  0.00    -0.382 N 
ATOM   1197  H62   A A  38     -29.381  -1.922  42.146  1.00  0.00     0.157 HD
ATOM   1198  H61   A A  38     -28.752  -3.063  43.319  1.00  0.00     0.157 HD
ATOM   1199  N7    A A  38     -28.817  -2.734  46.116  1.00  0.00    -0.236 NA
ATOM   1200  C8    A A  38     -28.931  -2.421  47.384  1.00  0.00     0.214 A 
ENDBRANCH 843 1189
ENDBRANCH 838 839
ENDBRANCH 837 838
ENDBRANCH 834 837
ENDBRANCH 833 834
ENDBRANCH 818 833
ENDBRANCH 813 814
ENDBRANCH 796 813
ENDBRANCH 765 766
ENDBRANCH 764 765
ENDBRANCH 761 764
ENDBRANCH 760 761
ENDBRANCH 696 760
BRANCH 755 1201
ATOM   1201  N9    A A  29     -21.388  13.941  13.507  1.00  0.00    -0.294 N 
ATOM   1202  C8    A A  29     -21.218  14.905  12.544  1.00  0.00     0.214 A 
ATOM   1203  N7    A A  29     -19.994  15.370  12.473  1.00  0.00    -0.236 NA
ATOM   1204  C5    A A  29     -19.314  14.667  13.459  1.00  0.00     0.149 A 
ATOM   1205  C4    A A  29     -20.160  13.785  14.104  1.00  0.00     0.167 A 
ATOM   1206  C6    A A  29     -17.976  14.699  13.891  1.00  0.00     0.155 A 
ATOM   1207  N3    A A  29     -19.841  12.949  15.107  1.00  0.00    -0.222 NA
ATOM   1208  C2    A A  29     -18.556  13.071  15.429  1.00  0.00     0.237 A 
ATOM   1209  N1    A A  29     -17.622  13.873  14.900  1.00  0.00    -0.222 NA
ATOM   1210  N6    A A  29     -17.046  15.493  13.362  1.00  0.00    -0.382 N 
ATOM   1211  H61   A A  29     -17.289  16.116  12.607  1.00  0.00     0.157 HD
ATOM   1212  H62   A A  29     -16.100  15.479  13.721  1.00  0.00     0.157 HD
ENDBRANCH 755 1201
ENDBRANCH 627 628
ENDBRANCH 626 627
ENDBRANCH 623 626
ENDBRANCH 622 623
ENDBRANCH 592 622
BRANCH 594 1213
ATOM   1213  O2'   G A  28     -21.904   8.495  10.737  1.00  0.00    -0.388 OA
ATOM   1214 'HO2   G A  28     -22.203   8.725   9.858  1.00  0.00     0.210 HD
ENDBRANCH 594 1213
BRANCH 604 1215
ATOM   1215  N2    G A  28     -21.602   3.259   8.944  1.00  0.00    -0.233 N 
ATOM   1216  H21   G A  28     -22.030   3.595   8.095  1.00  0.00     0.174 HD
ATOM   1217  H22   G A  28     -20.709   2.786   8.911  1.00  0.00     0.174 HD
ENDBRANCH 604 1215
ENDBRANCH 552 553
ENDBRANCH 549 552
ENDBRANCH 548 549
ENDBRANCH 544 548
BRANCH 545 1218
ATOM   1218  O2'   C A  25     -26.053  -2.291  20.866  1.00  0.00    -0.388 OA
ATOM   1219 'HO2   C A  25     -26.554  -2.377  21.678  1.00  0.00     0.210 HD
ENDBRANCH 545 1218
BRANCH 546 1220
ATOM   1220  N1    C A  25     -28.884  -2.548  18.556  1.00  0.00    -0.278 N 
ATOM   1221  C2    C A  25     -30.204  -2.994  18.473  1.00  0.00     0.352 A 
ATOM   1222  N3    C A  25     -30.831  -2.986  17.276  1.00  0.00    -0.177 NA
ATOM   1223  O2    C A  25     -30.769  -3.390  19.501  1.00  0.00    -0.244 OA
ATOM   1224  C4    C A  25     -30.189  -2.549  16.191  1.00  0.00     0.128 A 
ATOM   1225  C5    C A  25     -28.845  -2.081  16.247  1.00  0.00     0.067 A 
ATOM   1226  N4    C A  25     -30.849  -2.559  15.034  1.00  0.00    -0.384 N 
ATOM   1227  C6    C A  25     -28.235  -2.101  17.440  1.00  0.00     0.102 A 
ATOM   1228  H42   C A  25     -31.801  -2.893  15.002  1.00  0.00     0.157 HD
ATOM   1229  H41   C A  25     -30.399  -2.235  14.190  1.00  0.00     0.157 HD
ENDBRANCH 546 1220
ENDBRANCH 513 543
ENDBRANCH 367 368
ENDBRANCH 364 367
ENDBRANCH 363 364
ENDBRANCH 360 363
ENDBRANCH 346 347
ENDBRANCH 345 346
ENDBRANCH 342 345
ENDBRANCH 341 342
ENDBRANCH 317 341
ENDBRANCH 251 252
ENDBRANCH 250 251
ENDBRANCH 247 250
ENDBRANCH 246 247
ENDBRANCH 223 246
ENDBRANCH 206 207
ENDBRANCH 205 206
ENDBRANCH 202 205
ENDBRANCH 201 202
ENDBRANCH 179 201
BRANCH 197 1230
ATOM   1230  N9    G A   9     -30.799   8.883  27.732  1.00  0.00    -0.293 N 
ATOM   1231  C4    G A   9     -30.209   7.725  28.177  1.00  0.00     0.187 A 
ATOM   1232  N3    G A   9     -28.954   7.611  28.660  1.00  0.00    -0.044 NA
ATOM   1233  C5    G A   9     -31.163   6.742  28.021  1.00  0.00     0.173 A 
ATOM   1234  C2    G A   9     -28.671   6.368  29.007  1.00  0.00     0.703 A 
ATOM   1235  N1    G A   9     -29.547   5.320  28.892  1.00  0.00    -0.153 N 
ATOM   1236  C6    G A   9     -30.844   5.413  28.401  1.00  0.00     0.292 A 
ATOM   1237  H1    G A   9     -29.229   4.410  29.187  1.00  0.00     0.187 HD
ATOM   1238  O6    G A   9     -31.554   4.401  28.345  1.00  0.00    -0.265 OA
ATOM   1239  N7    G A   9     -32.332   7.272  27.489  1.00  0.00    -0.234 NA
ATOM   1240  C8    G A   9     -32.068   8.541  27.334  1.00  0.00     0.214 A 
BRANCH 1234 1241
ATOM   1241  N2    G A   9     -27.467   6.078  29.504  1.00  0.00    -0.233 N 
ATOM   1242  H21   G A   9     -26.744   5.738  28.887  1.00  0.00     0.174 HD
ATOM   1243  H22   G A   9     -27.283   6.192  30.492  1.00  0.00     0.174 HD
ENDBRANCH 1234 1241
ENDBRANCH 197 1230
ENDBRANCH 165 166
ENDBRANCH 162 165
ENDBRANCH 137 162
ENDBRANCH 113 117
BRANCH 114 1244
ATOM   1244  O2'   G A   6     -31.143   0.961  33.632  1.00  0.00    -0.388 OA
ATOM   1245 'HO2   G A   6     -31.276   0.411  32.860  1.00  0.00     0.210 HD
ENDBRANCH 114 1244
BRANCH 115 1246
ATOM   1246  N9    G A   6     -30.660   0.020  37.115  1.00  0.00    -0.293 N 
ATOM   1247  C8    G A   6     -31.489  -0.549  38.051  1.00  0.00     0.214 A 
ATOM   1248  N7    G A   6     -30.857  -1.296  38.913  1.00  0.00    -0.234 NA
ATOM   1249  C5    G A   6     -29.527  -1.220  38.521  1.00  0.00     0.173 A 
ATOM   1250  C4    G A   6     -29.389  -0.413  37.412  1.00  0.00     0.187 A 
ATOM   1251  C6    G A   6     -28.368  -1.824  39.075  1.00  0.00     0.292 A 
ATOM   1252  N3    G A   6     -28.265  -0.094  36.737  1.00  0.00    -0.044 NA
ATOM   1253  C2    G A   6     -27.195  -0.664  37.264  1.00  0.00     0.703 A 
ATOM   1254  N2    G A   6     -25.995  -0.457  36.717  1.00  0.00    -0.233 N 
ATOM   1255  N1    G A   6     -27.224  -1.481  38.365  1.00  0.00    -0.153 N 
ATOM   1256  H22   G A   6     -25.173  -0.890  37.115  1.00  0.00     0.174 HD
ATOM   1257  H21   G A   6     -25.913   0.136  35.904  1.00  0.00     0.174 HD
ATOM   1258  H1    G A   6     -26.348  -1.864  38.685  1.00  0.00     0.187 HD
ATOM   1259  O6    G A   6     -28.280  -2.573  40.054  1.00  0.00    -0.265 OA
ENDBRANCH 115 1246
ENDBRANCH 111 112
ENDBRANCH 110 111
ENDBRANCH 107 110
ENDBRANCH 106 107
ENDBRANCH 102 106
BRANCH 103 1260
ATOM   1260  O2'   C A   5     -35.688   4.083  41.098  1.00  0.00    -0.388 OA
ATOM   1261 'HO2   C A   5     -35.609   3.827  42.018  1.00  0.00     0.210 HD
ENDBRANCH 103 1260
BRANCH 104 1262
ATOM   1262  N1    C A   5     -39.297   4.061  40.993  1.00  0.00    -0.278 N 
ATOM   1263  C2    C A   5     -39.481   3.628  42.307  1.00  0.00     0.352 A 
ATOM   1264  O2    C A   5     -38.532   3.695  43.101  1.00  0.00    -0.244 OA
ATOM   1265  N3    C A   5     -40.686   3.147  42.684  1.00  0.00    -0.177 NA
ATOM   1266  C4    C A   5     -41.686   3.094  41.804  1.00  0.00     0.128 A 
ATOM   1267  N4    C A   5     -42.856   2.613  42.224  1.00  0.00    -0.384 N 
ATOM   1268  C5    C A   5     -41.530   3.529  40.456  1.00  0.00     0.067 A 
ATOM   1269  H42   C A   5     -42.956   2.301  43.180  1.00  0.00     0.157 HD
ATOM   1270  H41   C A   5     -43.641   2.554  41.593  1.00  0.00     0.157 HD
ATOM   1271  C6    C A   5     -40.328   4.000  40.096  1.00  0.00     0.102 A 
ENDBRANCH 104 1262
ENDBRANCH 100 101
ENDBRANCH  99 100
ENDBRANCH  96  99
ENDBRANCH  95  96
ENDBRANCH  67  95
ENDBRANCH  24  27
ENDBRANCH  23  24
ENDBRANCH  22  23
BRANCH  21 1272
ATOM   1272  O2'   G A   1     -39.556  10.118  49.931  1.00  0.00    -0.388 OA
ATOM   1273 'HO2   G A   1     -39.531  10.509  49.057  1.00  0.00     0.210 HD
ENDBRANCH  21 1272
TORSDOF 402
ENDMDL
MODEL 6
REMARK VINA RESULT:      -1.7      5.216     14.615
REMARK WARNING: 32 MAX_TORS EXCEEDED!!!
REMARK  101 active torsions:
REMARK  status: ('A' for Active; 'I' for Inactive)
REMARK       I    between atoms: O5'_2  and  C5'_3 
REMARK       I    between atoms: C5'_3  and  C4'_4 
REMARK       I    between atoms: C1'_6  and  N9_7 
REMARK       I    between atoms: C2_10  and  N2_11 
REMARK    1  A    between atoms: C2'_21  and  O2'_22 
REMARK    2  A    between atoms: C3'_24  and  O3'_25 
REMARK    3  A    between atoms: O3'_25  and  P_26 
REMARK    4  A    between atoms: P_26  and  O5'_29 
REMARK       I    between atoms: O5'_29  and  C5'_30 
REMARK       I    between atoms: C5'_30  and  C4'_31 
REMARK       I    between atoms: C1'_33  and  N9_34 
REMARK       I    between atoms: C2_37  and  N2_38 
REMARK       I    between atoms: C2'_48  and  O2'_49 
REMARK       I    between atoms: C3'_51  and  O3'_52 
REMARK       I    between atoms: O3'_52  and  P_53 
REMARK       I    between atoms: P_53  and  O5'_56 
REMARK       I    between atoms: O5'_56  and  C5'_57 
REMARK       I    between atoms: C5'_57  and  C4'_58 
REMARK       I    between atoms: C1'_60  and  N1_61 
REMARK       I    between atoms: C4_66  and  N4_67 
REMARK       I    between atoms: C2'_71  and  O2'_72 
REMARK       I    between atoms: C3'_74  and  O3'_75 
REMARK       I    between atoms: O3'_75  and  P_76 
REMARK       I    between atoms: P_76  and  O5'_79 
REMARK       I    between atoms: O5'_79  and  C5'_80 
REMARK       I    between atoms: C5'_80  and  C4'_81 
REMARK       I    between atoms: C1'_83  and  N1_84 
REMARK       I    between atoms: C2'_93  and  O2'_94 
REMARK    5  A    between atoms: C3'_96  and  O3'_97 
REMARK    6  A    between atoms: O3'_97  and  P_98 
REMARK    7  A    between atoms: P_98  and  O5'_101 
REMARK    8  A    between atoms: O5'_101  and  C5'_102 
REMARK    9  A    between atoms: C5'_102  and  C4'_103 
REMARK   10  A    between atoms: C1'_105  and  N1_106 
REMARK       I    between atoms: C4_111  and  N4_112 
REMARK   11  A    between atoms: C2'_116  and  O2'_117 
REMARK   12  A    between atoms: C3'_119  and  O3'_120 
REMARK   13  A    between atoms: O3'_120  and  P_121 
REMARK   14  A    between atoms: P_121  and  O5'_124 
REMARK   15  A    between atoms: O5'_124  and  C5'_125 
REMARK   16  A    between atoms: C5'_125  and  C4'_126 
REMARK   17  A    between atoms: C1'_128  and  N9_129 
REMARK       I    between atoms: C2_132  and  N2_133 
REMARK   18  A    between atoms: C2'_143  and  O2'_144 
REMARK   19  A    between atoms: C3'_146  and  O3'_147 
REMARK       I    between atoms: O3'_147  and  P_148 
REMARK       I    between atoms: P_148  and  O5'_151 
REMARK       I    between atoms: O5'_151  and  C5'_152 
REMARK       I    between atoms: C5'_152  and  C4'_153 
REMARK       I    between atoms: C1'_155  and  N1_156 
REMARK       I    between atoms: C2'_165  and  O2'_166 
REMARK       I    between atoms: C3'_168  and  O3'_169 
REMARK       I    between atoms: O3'_169  and  P_170 
REMARK       I    between atoms: P_170  and  O5'_173 
REMARK       I    between atoms: O5'_173  and  C5'_174 
REMARK       I    between atoms: C5'_174  and  C4'_175 
REMARK       I    between atoms: C1'_177  and  N1_178 
REMARK       I    between atoms: C2'_187  and  O2'_188 
REMARK       I    between atoms: C3'_190  and  O3'_191 
REMARK   20  A    between atoms: O3'_191  and  P_192 
REMARK   21  A    between atoms: P_192  and  O5'_195 
REMARK   22  A    between atoms: O5'_195  and  C5'_196 
REMARK       I    between atoms: C5'_196  and  C4'_197 
REMARK   23  A    between atoms: C1'_199  and  N9_200 
REMARK   24  A    between atoms: C2_203  and  N2_204 
REMARK       I    between atoms: C2'_214  and  O2'_215 
REMARK       I    between atoms: C3'_217  and  O3'_218 
REMARK       I    between atoms: O3'_218  and  P_219 
REMARK       I    between atoms: P_219  and  O5'_222 
REMARK       I    between atoms: O5'_222  and  C5'_223 
REMARK       I    between atoms: C5'_223  and  C4'_224 
REMARK       I    between atoms: C1'_226  and  N9_227 
REMARK       I    between atoms: C2_230  and  N2_231 
REMARK   25  A    between atoms: C2'_241  and  O2'_242 
REMARK   26  A    between atoms: C3'_244  and  O3'_245 
REMARK   27  A    between atoms: O3'_245  and  P_246 
REMARK   28  A    between atoms: P_246  and  O5'_249 
REMARK   29  A    between atoms: O5'_249  and  C5'_250 
REMARK   30  A    between atoms: C5'_250  and  C4'_251 
REMARK       I    between atoms: C1'_253  and  N1_254 
REMARK       I    between atoms: C2'_263  and  O2'_264 
REMARK       I    between atoms: C3'_266  and  O3'_267 
REMARK       I    between atoms: O3'_267  and  P_268 
REMARK       I    between atoms: P_268  and  O5'_271 
REMARK       I    between atoms: O5'_271  and  C5'_272 
REMARK       I    between atoms: C5'_272  and  C4'_273 
REMARK       I    between atoms: C1'_275  and  N1_276 
REMARK       I    between atoms: C4_281  and  N4_282 
REMARK   31  A    between atoms: C2'_286  and  O2'_287 
REMARK   32  A    between atoms: C3'_289  and  O3'_290 
REMARK   33  A    between atoms: O3'_290  and  P_291 
REMARK   34  A    between atoms: P_291  and  O5'_294 
REMARK   35  A    between atoms: O5'_294  and  C5'_295 
REMARK   36  A    between atoms: C5'_295  and  C4'_296 
REMARK   37  A    between atoms: C1'_298  and  N1_299 
REMARK       I    between atoms: C2'_308  and  O2'_309 
REMARK       I    between atoms: C3'_311  and  O3'_312 
REMARK       I    between atoms: O3'_312  and  P_313 
REMARK       I    between atoms: P_313  and  O5'_316 
REMARK       I    between atoms: O5'_316  and  C5'_317 
REMARK       I    between atoms: C5'_317  and  C4'_318 
REMARK       I    between atoms: C1'_320  and  N1_321 
REMARK       I    between atoms: C4_326  and  N4_327 
REMARK       I    between atoms: C2'_331  and  O2'_332 
REMARK       I    between atoms: C3'_334  and  O3'_335 
REMARK       I    between atoms: O3'_335  and  P_336 
REMARK       I    between atoms: P_336  and  O5'_339 
REMARK       I    between atoms: O5'_339  and  C5'_340 
REMARK       I    between atoms: C5'_340  and  C4'_341 
REMARK       I    between atoms: C1'_343  and  N9_344 
REMARK       I    between atoms: C2_347  and  N2_348 
REMARK       I    between atoms: C2'_358  and  O2'_359 
REMARK       I    between atoms: C3'_361  and  O3'_362 
REMARK       I    between atoms: O3'_362  and  P_363 
REMARK       I    between atoms: P_363  and  O5'_366 
REMARK       I    between atoms: O5'_366  and  C5'_367 
REMARK       I    between atoms: C5'_367  and  C4'_368 
REMARK       I    between atoms: C1'_370  and  N1_371 
REMARK       I    between atoms: C4_376  and  N4_377 
REMARK   38  A    between atoms: C2'_381  and  O2'_382 
REMARK   39  A    between atoms: C3'_384  and  O3'_385 
REMARK   40  A    between atoms: O3'_385  and  P_386 
REMARK   41  A    between atoms: P_386  and  O5'_389 
REMARK   42  A    between atoms: O5'_389  and  C5'_390 
REMARK   43  A    between atoms: C5'_390  and  C4'_391 
REMARK       I    between atoms: C1'_393  and  N1_394 
REMARK       I    between atoms: C2'_403  and  O2'_404 
REMARK   44  A    between atoms: C3'_406  and  O3'_407 
REMARK   45  A    between atoms: O3'_407  and  P_408 
REMARK   46  A    between atoms: P_408  and  O5'_411 
REMARK   47  A    between atoms: O5'_411  and  C5'_412 
REMARK       I    between atoms: C5'_412  and  C4'_413 
REMARK       I    between atoms: C1'_415  and  N1_416 
REMARK       I    between atoms: C2'_425  and  O2'_426 
REMARK       I    between atoms: C3'_428  and  O3'_429 
REMARK       I    between atoms: O3'_429  and  P_430 
REMARK       I    between atoms: P_430  and  O5'_433 
REMARK       I    between atoms: O5'_433  and  C5'_434 
REMARK       I    between atoms: C5'_434  and  C4'_435 
REMARK       I    between atoms: C1'_437  and  N1_438 
REMARK       I    between atoms: C2'_447  and  O2'_448 
REMARK       I    between atoms: C3'_450  and  O3'_451 
REMARK       I    between atoms: O3'_451  and  P_452 
REMARK       I    between atoms: P_452  and  O5'_455 
REMARK       I    between atoms: O5'_455  and  C5'_456 
REMARK       I    between atoms: C5'_456  and  C4'_457 
REMARK       I    between atoms: C1'_459  and  N9_460 
REMARK       I    between atoms: C2_463  and  N2_464 
REMARK       I    between atoms: C2'_474  and  O2'_475 
REMARK       I    between atoms: C3'_477  and  O3'_478 
REMARK       I    between atoms: O3'_478  and  P_479 
REMARK       I    between atoms: P_479  and  O5'_482 
REMARK       I    between atoms: O5'_482  and  C5'_483 
REMARK       I    between atoms: C5'_483  and  C4'_484 
REMARK       I    between atoms: C1'_486  and  N9_487 
REMARK       I    between atoms: C2_490  and  N2_491 
REMARK       I    between atoms: C2'_501  and  O2'_502 
REMARK       I    between atoms: C3'_504  and  O3'_505 
REMARK       I    between atoms: O3'_505  and  P_506 
REMARK       I    between atoms: P_506  and  O5'_509 
REMARK       I    between atoms: O5'_509  and  C5'_510 
REMARK       I    between atoms: C5'_510  and  C4'_511 
REMARK       I    between atoms: C1'_513  and  N9_514 
REMARK       I    between atoms: C2_517  and  N2_518 
REMARK       I    between atoms: C2'_528  and  O2'_529 
REMARK       I    between atoms: C3'_531  and  O3'_532 
REMARK       I    between atoms: O3'_532  and  P_533 
REMARK       I    between atoms: P_533  and  O5'_536 
REMARK       I    between atoms: O5'_536  and  C5'_537 
REMARK       I    between atoms: C5'_537  and  C4'_538 
REMARK       I    between atoms: C1'_540  and  N1_541 
REMARK       I    between atoms: C2'_550  and  O2'_551 
REMARK       I    between atoms: C3'_553  and  O3'_554 
REMARK       I    between atoms: O3'_554  and  P_555 
REMARK       I    between atoms: P_555  and  O5'_558 
REMARK       I    between atoms: O5'_558  and  C5'_559 
REMARK       I    between atoms: C5'_559  and  C4'_560 
REMARK       I    between atoms: C1'_562  and  N9_563 
REMARK       I    between atoms: C2_566  and  N2_567 
REMARK       I    between atoms: C2'_577  and  O2'_578 
REMARK       I    between atoms: C3'_580  and  O3'_581 
REMARK       I    between atoms: O3'_581  and  P_582 
REMARK       I    between atoms: P_582  and  O5'_585 
REMARK       I    between atoms: O5'_585  and  C5'_586 
REMARK   48  A    between atoms: C5'_586  and  C4'_587 
REMARK   49  A    between atoms: C1'_589  and  N1_590 
REMARK       I    between atoms: C4_595  and  N4_596 
REMARK   50  A    between atoms: C2'_600  and  O2'_601 
REMARK   51  A    between atoms: C3'_603  and  O3'_604 
REMARK   52  A    between atoms: O3'_604  and  P_605 
REMARK   53  A    between atoms: P_605  and  O5'_608 
REMARK   54  A    between atoms: O5'_608  and  C5'_609 
REMARK       I    between atoms: C5'_609  and  C4'_610 
REMARK       I    between atoms: C1'_612  and  N9_613 
REMARK       I    between atoms: C2_616  and  N2_617 
REMARK       I    between atoms: C2'_627  and  O2'_628 
REMARK       I    between atoms: C3'_630  and  O3'_631 
REMARK       I    between atoms: O3'_631  and  P_632 
REMARK       I    between atoms: P_632  and  O5'_635 
REMARK       I    between atoms: O5'_635  and  C5'_636 
REMARK       I    between atoms: C5'_636  and  C4'_637 
REMARK       I    between atoms: C1'_639  and  N9_640 
REMARK       I    between atoms: C6_645  and  N6_646 
REMARK       I    between atoms: C2'_652  and  O2'_653 
REMARK       I    between atoms: C3'_655  and  O3'_656 
REMARK       I    between atoms: O3'_656  and  P_657 
REMARK       I    between atoms: P_657  and  O5'_660 
REMARK       I    between atoms: O5'_660  and  C5'_661 
REMARK       I    between atoms: C5'_661  and  C4'_662 
REMARK       I    between atoms: C1'_664  and  N9_665 
REMARK   55  A    between atoms: C2_668  and  N2_669 
REMARK   56  A    between atoms: C2'_679  and  O2'_680 
REMARK   57  A    between atoms: C3'_682  and  O3'_683 
REMARK   58  A    between atoms: O3'_683  and  P_684 
REMARK   59  A    between atoms: P_684  and  O5'_687 
REMARK   60  A    between atoms: O5'_687  and  C5'_688 
REMARK   61  A    between atoms: C5'_688  and  C4'_689 
REMARK   62  A    between atoms: C1'_691  and  N9_692 
REMARK       I    between atoms: C6_697  and  N6_698 
REMARK       I    between atoms: C2'_704  and  O2'_705 
REMARK       I    between atoms: C3'_707  and  O3'_708 
REMARK       I    between atoms: O3'_708  and  P_709 
REMARK       I    between atoms: P_709  and  O5'_712 
REMARK       I    between atoms: O5'_712  and  C5'_713 
REMARK       I    between atoms: C5'_713  and  C4'_714 
REMARK       I    between atoms: C1'_716  and  N9_717 
REMARK       I    between atoms: C2_720  and  N2_721 
REMARK       I    between atoms: C2'_731  and  O2'_732 
REMARK       I    between atoms: C3'_734  and  O3'_735 
REMARK       I    between atoms: O3'_735  and  P_736 
REMARK       I    between atoms: P_736  and  O5'_739 
REMARK       I    between atoms: O5'_739  and  C5'_740 
REMARK       I    between atoms: C5'_740  and  C4'_741 
REMARK       I    between atoms: C1'_743  and  N9_744 
REMARK       I    between atoms: C2_747  and  N2_748 
REMARK       I    between atoms: C2'_758  and  O2'_759 
REMARK       I    between atoms: C3'_761  and  O3'_762 
REMARK       I    between atoms: O3'_762  and  P_763 
REMARK       I    between atoms: P_763  and  O5'_766 
REMARK       I    between atoms: O5'_766  and  C5'_767 
REMARK       I    between atoms: C5'_767  and  C4'_768 
REMARK       I    between atoms: C1'_770  and  N9_771 
REMARK       I    between atoms: C2_774  and  N2_775 
REMARK       I    between atoms: C2'_785  and  O2'_786 
REMARK       I    between atoms: C3'_788  and  O3'_789 
REMARK       I    between atoms: O3'_789  and  P_790 
REMARK       I    between atoms: P_790  and  O5'_793 
REMARK       I    between atoms: O5'_793  and  C5'_794 
REMARK       I    between atoms: C5'_794  and  C4'_795 
REMARK       I    between atoms: C1'_797  and  N1_798 
REMARK       I    between atoms: C2'_807  and  O2'_808 
REMARK       I    between atoms: C3'_810  and  O3'_811 
REMARK       I    between atoms: O3'_811  and  P_812 
REMARK       I    between atoms: P_812  and  O5'_815 
REMARK       I    between atoms: O5'_815  and  C5'_816 
REMARK       I    between atoms: C5'_816  and  C4'_817 
REMARK       I    between atoms: C1'_819  and  N1_820 
REMARK   63  A    between atoms: C2'_829  and  O2'_830 
REMARK   64  A    between atoms: C3'_832  and  O3'_833 
REMARK   65  A    between atoms: O3'_833  and  P_834 
REMARK   66  A    between atoms: P_834  and  O5'_837 
REMARK   67  A    between atoms: O5'_837  and  C5'_838 
REMARK   68  A    between atoms: C5'_838  and  C4'_839 
REMARK       I    between atoms: C1'_841  and  N1_842 
REMARK       I    between atoms: C4_847  and  N4_848 
REMARK       I    between atoms: C2'_852  and  O2'_853 
REMARK       I    between atoms: C3'_855  and  O3'_856 
REMARK       I    between atoms: O3'_856  and  P_857 
REMARK       I    between atoms: P_857  and  O5'_860 
REMARK       I    between atoms: O5'_860  and  C5'_861 
REMARK       I    between atoms: C5'_861  and  C4'_862 
REMARK       I    between atoms: C1'_864  and  N9_865 
REMARK       I    between atoms: C6_870  and  N6_871 
REMARK       I    between atoms: C2'_877  and  O2'_878 
REMARK       I    between atoms: C3'_880  and  O3'_881 
REMARK       I    between atoms: O3'_881  and  P_882 
REMARK       I    between atoms: P_882  and  O5'_885 
REMARK   69  A    between atoms: O5'_885  and  C5'_886 
REMARK   70  A    between atoms: C5'_886  and  C4'_887 
REMARK   71  A    between atoms: C1'_889  and  N9_890 
REMARK       I    between atoms: C6_895  and  N6_896 
REMARK   72  A    between atoms: C2'_902  and  O2'_903 
REMARK   73  A    between atoms: C3'_905  and  O3'_906 
REMARK   74  A    between atoms: O3'_906  and  P_907 
REMARK   75  A    between atoms: P_907  and  O5'_910 
REMARK   76  A    between atoms: O5'_910  and  C5'_911 
REMARK   77  A    between atoms: C5'_911  and  C4'_912 
REMARK   78  A    between atoms: C1'_914  and  N9_915 
REMARK       I    between atoms: C6_920  and  N6_921 
REMARK       I    between atoms: C2'_927  and  O2'_928 
REMARK   79  A    between atoms: C3'_930  and  O3'_931 
REMARK       I    between atoms: O3'_931  and  P_932 
REMARK       I    between atoms: P_932  and  O5'_935 
REMARK       I    between atoms: O5'_935  and  C5'_936 
REMARK       I    between atoms: C5'_936  and  C4'_937 
REMARK       I    between atoms: C1'_939  and  N1_940 
REMARK       I    between atoms: C2'_949  and  O2'_950 
REMARK       I    between atoms: C3'_952  and  O3'_953 
REMARK       I    between atoms: O3'_953  and  P_954 
REMARK       I    between atoms: P_954  and  O5'_957 
REMARK       I    between atoms: O5'_957  and  C5'_958 
REMARK       I    between atoms: C5'_958  and  C4'_959 
REMARK       I    between atoms: C1'_961  and  N1_962 
REMARK       I    between atoms: C4_967  and  N4_968 
REMARK       I    between atoms: C2'_972  and  O2'_973 
REMARK       I    between atoms: C3'_975  and  O3'_976 
REMARK       I    between atoms: O3'_976  and  P_977 
REMARK       I    between atoms: P_977  and  O5'_980 
REMARK       I    between atoms: O5'_980  and  C5'_981 
REMARK       I    between atoms: C5'_981  and  C4'_982 
REMARK       I    between atoms: C1'_984  and  N1_985 
REMARK       I    between atoms: C4_990  and  N4_991 
REMARK       I    between atoms: C2'_995  and  O2'_996 
REMARK       I    between atoms: C3'_998  and  O3'_999 
REMARK       I    between atoms: O3'_999  and  P_1000 
REMARK       I    between atoms: P_1000  and  O5'_1003 
REMARK       I    between atoms: O5'_1003  and  C5'_1004 
REMARK       I    between atoms: C5'_1004  and  C4'_1005 
REMARK   80  A    between atoms: C1'_1007  and  N1_1008 
REMARK       I    between atoms: C4_1013  and  N4_1014 
REMARK   81  A    between atoms: C2'_1018  and  O2'_1019 
REMARK   82  A    between atoms: C3'_1021  and  O3'_1022 
REMARK   83  A    between atoms: O3'_1022  and  P_1023 
REMARK   84  A    between atoms: P_1023  and  O5'_1026 
REMARK   85  A    between atoms: O5'_1026  and  C5'_1027 
REMARK   86  A    between atoms: C5'_1027  and  C4'_1028 
REMARK   87  A    between atoms: C1'_1030  and  N9_1031 
REMARK       I    between atoms: C2_1034  and  N2_1035 
REMARK       I    between atoms: C2'_1045  and  O2'_1046 
REMARK       I    between atoms: C3'_1048  and  O3'_1049 
REMARK       I    between atoms: O3'_1049  and  P_1050 
REMARK       I    between atoms: P_1050  and  O5'_1053 
REMARK       I    between atoms: O5'_1053  and  C5'_1054 
REMARK       I    between atoms: C5'_1054  and  C4'_1055 
REMARK       I    between atoms: C1'_1057  and  N9_1058 
REMARK       I    between atoms: C2_1061  and  N2_1062 
REMARK   88  A    between atoms: C2'_1072  and  O2'_1073 
REMARK   89  A    between atoms: C3'_1075  and  O3'_1076 
REMARK   90  A    between atoms: O3'_1076  and  P_1077 
REMARK       I    between atoms: P_1077  and  O5'_1080 
REMARK       I    between atoms: O5'_1080  and  C5'_1081 
REMARK       I    between atoms: C5'_1081  and  C4'_1082 
REMARK       I    between atoms: C1'_1084  and  N9_1085 
REMARK       I    between atoms: C6_1090  and  N6_1091 
REMARK       I    between atoms: C2'_1097  and  O2'_1098 
REMARK       I    between atoms: C3'_1100  and  O3'_1101 
REMARK   91  A    between atoms: O3'_1101  and  P_1102 
REMARK   92  A    between atoms: P_1102  and  O5'_1105 
REMARK   93  A    between atoms: O5'_1105  and  C5'_1106 
REMARK   94  A    between atoms: C5'_1106  and  C4'_1107 
REMARK   95  A    between atoms: C1'_1109  and  N1_1110 
REMARK       I    between atoms: C4_1115  and  N4_1116 
REMARK   96  A    between atoms: C2'_1120  and  O2'_1121 
REMARK   97  A    between atoms: C3'_1123  and  O3'_1124 
REMARK   98  A    between atoms: O3'_1124  and  P_1125 
REMARK   99  A    between atoms: P_1125  and  O5'_1128 
REMARK  100  A    between atoms: O5'_1128  and  C5'_1129 
REMARK  101  A    between atoms: C5'_1129  and  C4'_1130 
REMARK       I    between atoms: C1'_1132  and  N9_1133 
REMARK       I    between atoms: C2_1136  and  N2_1137 
REMARK       I    between atoms: C2'_1147  and  O2'_1148 
REMARK       I    between atoms: C3'_1150  and  O3'_1151 
REMARK       I    between atoms: O3'_1151  and  P_1152 
REMARK       I    between atoms: P_1152  and  O5'_1155 
REMARK       I    between atoms: O5'_1155  and  C5'_1156 
REMARK       I    between atoms: C5'_1156  and  C4'_1157 
REMARK       I    between atoms: C1'_1159  and  N9_1160 
REMARK       I    between atoms: C6_1165  and  N6_1166 
REMARK       I    between atoms: C2'_1172  and  O2'_1173 
REMARK       I    between atoms: C3'_1175  and  O3'_1176 
REMARK       I    between atoms: O3'_1176  and  P_1177 
REMARK       I    between atoms: P_1177  and  O5'_1180 
REMARK       I    between atoms: O5'_1180  and  C5'_1181 
REMARK       I    between atoms: C5'_1181  and  C4'_1182 
REMARK       I    between atoms: C1'_1184  and  N9_1185 
REMARK       I    between atoms: C2_1188  and  N2_1189 
REMARK       I    between atoms: C2'_1199  and  O2'_1200 
REMARK       I    between atoms: C3'_1202  and  O3'_1203 
REMARK       I    between atoms: O3'_1203  and  P_1204 
REMARK       I    between atoms: P_1204  and  O5'_1207 
REMARK       I    between atoms: O5'_1207  and  C5'_1208 
REMARK       I    between atoms: C5'_1208  and  C4'_1209 
REMARK       I    between atoms: C1'_1211  and  N1_1212 
REMARK       I    between atoms: C4_1217  and  N4_1218 
REMARK       I    between atoms: C2'_1222  and  O2'_1223 
REMARK       I    between atoms: C3'_1225  and  O3'_1226 
REMARK       I    between atoms: O3'_1226  and  P_1227 
REMARK       I    between atoms: P_1227  and  O5'_1230 
REMARK       I    between atoms: O5'_1230  and  C5'_1231 
REMARK       I    between atoms: C5'_1231  and  C4'_1232 
REMARK       I    between atoms: C1'_1234  and  N1_1235 
REMARK       I    between atoms: C4_1240  and  N4_1241 
REMARK       I    between atoms: C2'_1245  and  O2'_1246 
REMARK       I    between atoms: C3'_1248  and  O3'_1249 
REMARK       I    between atoms: O3'_1249  and  P_1250 
REMARK       I    between atoms: P_1250  and  O5'_1253 
REMARK       I    between atoms: O5'_1253  and  C5'_1254 
REMARK       I    between atoms: C5'_1254  and  C4'_1255 
REMARK       I    between atoms: C1'_1257  and  N1_1258 
REMARK       I    between atoms: C4_1263  and  N4_1264 
REMARK       I    between atoms: C2'_1268  and  O2'_1269 
REMARK       I    between atoms: C3'_1271  and  O3'_1272 
ROOT
ATOM      1 'HO5   G A   1     -41.103   2.115  51.493  1.00  0.00     0.209 HD
ATOM      2  O5'   G A   1     -41.881   1.844  51.986  1.00  0.00    -0.398 OA
ATOM      3  C5'   G A   1     -42.845   2.894  51.862  1.00  0.00     0.198 C 
ATOM      4  C4'   G A   1     -42.435   3.875  50.789  1.00  0.00     0.180 C 
ATOM      5  O4'   G A   1     -41.239   4.577  51.230  1.00  0.00    -0.353 OA
ATOM      6  C1'   G A   1     -40.312   4.662  50.164  1.00  0.00     0.262 C 
ATOM      7  N9    G A   1     -39.171   3.806  50.475  1.00  0.00    -0.293 N 
ATOM      8  C4    G A   1     -38.083   3.570  49.670  1.00  0.00     0.187 A 
ATOM      9  N3    G A   1     -37.874   4.096  48.445  1.00  0.00    -0.044 NA
ATOM     10  C2    G A   1     -36.737   3.678  47.918  1.00  0.00     0.703 A 
ATOM     11  N2    G A   1     -36.375   4.101  46.704  1.00  0.00    -0.233 N 
ATOM     12  H21   G A   1     -36.975   4.738  46.202  1.00  0.00     0.174 HD
ATOM     13  H22   G A   1     -35.507   3.786  46.293  1.00  0.00     0.174 HD
ATOM     14  N1    G A   1     -35.874   2.815  48.538  1.00  0.00    -0.153 N 
ATOM     15  H1    G A   1     -35.033   2.561  48.045  1.00  0.00     0.187 HD
ATOM     16  C6    G A   1     -36.065   2.261  49.799  1.00  0.00     0.292 A 
ATOM     17  O6    G A   1     -35.216   1.491  50.268  1.00  0.00    -0.265 OA
ATOM     18  C5    G A   1     -37.283   2.699  50.381  1.00  0.00     0.173 A 
ATOM     19  N7    G A   1     -37.855   2.396  51.610  1.00  0.00    -0.234 NA
ATOM     20  C8    G A   1     -38.970   3.074  51.621  1.00  0.00     0.214 A 
ATOM     21  C2'   G A   1     -41.055   4.258  48.892  1.00  0.00     0.199 C 
ATOM     22  C3'   G A   1     -42.057   3.255  49.450  1.00  0.00     0.198 C 
ENDROOT
BRANCH  22  23
ATOM     23  O3'   G A   1     -43.196   3.096  48.607  1.00  0.00    -0.279 OA
BRANCH  23  24
ATOM     24  P     G A   2     -44.543   3.917  48.918  1.00  0.00     0.408 P 
ATOM     25  OP2   G A   2     -45.505   3.006  49.591  1.00  0.00    -0.624 OA
ATOM     26  OP1   G A   2     -44.142   5.182  49.584  1.00  0.00    -0.624 OA
BRANCH  24  27
ATOM     27  O5'   G A   2     -45.119   4.274  47.476  1.00  0.00    -0.287 OA
ATOM     28  C5'   G A   2     -46.478   4.004  47.141  1.00  0.00     0.216 C 
ATOM     29  C4'   G A   2     -46.741   4.360  45.696  1.00  0.00     0.180 C 
ATOM     30  C3'   G A   2     -45.738   3.817  44.689  1.00  0.00     0.198 C 
ATOM     31  O4'   G A   2     -46.653   5.801  45.537  1.00  0.00    -0.353 OA
ATOM     32  C2'   G A   2     -45.899   4.784  43.523  1.00  0.00     0.199 C 
ATOM     33  O3'   G A   2     -46.031   2.470  44.327  1.00  0.00    -0.279 OA
ATOM     34  O2'   G A   2     -47.061   4.490  42.771  1.00  0.00    -0.388 OA
ATOM     35  C1'   G A   2     -46.114   6.105  44.261  1.00  0.00     0.262 C 
ATOM     36 'HO2   G A   2     -47.271   3.570  42.935  1.00  0.00     0.210 HD
ATOM     37  N9    G A   2     -44.888   6.874  44.450  1.00  0.00    -0.293 N 
ATOM     38  C8    G A   2     -44.211   7.087  45.626  1.00  0.00     0.214 A 
ATOM     39  C4    G A   2     -44.180   7.533  43.472  1.00  0.00     0.187 A 
ATOM     40  N7    G A   2     -43.144   7.822  45.481  1.00  0.00    -0.234 NA
ATOM     41  C5    G A   2     -43.111   8.112  44.123  1.00  0.00     0.173 A 
ATOM     42  C6    G A   2     -42.183   8.874  43.365  1.00  0.00     0.292 A 
ATOM     43  O6    G A   2     -41.172   9.469  43.755  1.00  0.00    -0.265 OA
ATOM     44  N1    G A   2     -42.529   8.908  42.019  1.00  0.00    -0.153 N 
ATOM     45  H1    G A   2     -41.926   9.425  41.399  1.00  0.00     0.187 HD
ATOM     46  C2    G A   2     -43.623   8.291  41.471  1.00  0.00     0.703 A 
ATOM     47  N2    G A   2     -43.784   8.439  40.155  1.00  0.00    -0.233 N 
ATOM     48  N3    G A   2     -44.495   7.580  42.162  1.00  0.00    -0.044 NA
ATOM     49  H22   G A   2     -43.121   8.982  39.617  1.00  0.00     0.174 HD
ATOM     50  H21   G A   2     -44.574   8.005  39.699  1.00  0.00     0.174 HD
ATOM     51  P     C A   3     -44.847   1.500  43.831  1.00  0.00     0.408 P 
ATOM     52  OP2   C A   3     -43.737   1.569  44.815  1.00  0.00    -0.624 OA
ATOM     53  O5'   C A   3     -44.348   2.166  42.472  1.00  0.00    -0.287 OA
ATOM     54  OP1   C A   3     -45.459   0.187  43.505  1.00  0.00    -0.624 OA
ATOM     55  C5'   C A   3     -45.219   2.282  41.349  1.00  0.00     0.216 C 
ATOM     56  C4'   C A   3     -44.474   2.855  40.165  1.00  0.00     0.180 C 
ATOM     57  C3'   C A   3     -43.070   2.316  39.939  1.00  0.00     0.198 C 
ATOM     58  O4'   C A   3     -44.264   4.278  40.371  1.00  0.00    -0.353 OA
ATOM     59  O3'   C A   3     -43.075   1.066  39.257  1.00  0.00    -0.279 OA
ATOM     60  C2'   C A   3     -42.436   3.429  39.115  1.00  0.00     0.199 C 
ATOM     61  P     T A   4     -41.810   0.082  39.387  1.00  0.00     0.408 P 
ATOM     62  O5'   T A   4     -40.638   0.859  38.637  1.00  0.00    -0.287 OA
ATOM     63  OP1   T A   4     -42.123  -1.147  38.614  1.00  0.00    -0.624 OA
ATOM     64  OP2   T A   4     -41.446  -0.028  40.823  1.00  0.00    -0.624 OA
ATOM     65  C5'   T A   4     -40.609   0.942  37.212  1.00  0.00     0.216 C 
ATOM     66  C4'   T A   4     -39.611   1.986  36.765  1.00  0.00     0.180 C 
ATOM     67  C3'   T A   4     -38.145   1.614  36.916  1.00  0.00     0.198 C 
ATOM     68  O4'   T A   4     -39.730   3.173  37.591  1.00  0.00    -0.353 OA
ATOM     69  C2'   T A   4     -37.466   2.979  36.875  1.00  0.00     0.199 C 
ATOM     70  O2'   T A   4     -37.364   3.460  35.548  1.00  0.00    -0.388 OA
ATOM     71  C1'   T A   4     -38.481   3.844  37.628  1.00  0.00     0.264 C 
ATOM     72 'HO2   T A   4     -37.075   2.725  35.006  1.00  0.00     0.210 HD
ATOM     73  N1    T A   4     -38.115   4.081  39.033  1.00  0.00    -0.280 N 
ATOM     74  C2    T A   4     -37.088   4.972  39.285  1.00  0.00     0.331 A 
ATOM     75  C6    T A   4     -38.767   3.441  40.063  1.00  0.00     0.104 A 
ATOM     76  O2    T A   4     -36.488   5.561  38.404  1.00  0.00    -0.246 OA
ATOM     77  N3    T A   4     -36.786   5.149  40.610  1.00  0.00    -0.275 N 
ATOM     78  H3    T A   4     -36.036   5.794  40.815  1.00  0.00     0.173 HD
ATOM     79  C4    T A   4     -37.393   4.544  41.687  1.00  0.00     0.250 A 
ATOM     80  C5    T A   4     -38.446   3.641  41.345  1.00  0.00     0.092 A 
ATOM     81  O4    T A   4     -37.004   4.807  42.825  1.00  0.00    -0.268 OA
ATOM     82  C1'   C A   3     -43.026   4.663  39.796  1.00  0.00     0.264 C 
ATOM     83  O2'   C A   3     -42.882   3.394  37.773  1.00  0.00    -0.388 OA
ATOM     84  N1    C A   3     -42.164   5.211  40.856  1.00  0.00    -0.278 N 
ATOM     85  C2    C A   3     -41.125   6.071  40.498  1.00  0.00     0.352 A 
ATOM     86  C6    C A   3     -42.369   4.887  42.169  1.00  0.00     0.102 A 
ATOM     87  N3    C A   3     -40.321   6.576  41.459  1.00  0.00    -0.177 NA
ATOM     88  O2    C A   3     -40.962   6.350  39.302  1.00  0.00    -0.244 OA
ATOM     89  C4    C A   3     -40.528   6.254  42.737  1.00  0.00     0.128 A 
ATOM     90  N4    C A   3     -39.710   6.779  43.647  1.00  0.00    -0.384 N 
ATOM     91  C5    C A   3     -41.582   5.382  43.134  1.00  0.00     0.067 A 
ATOM     92  H41   C A   3     -39.830   6.562  44.626  1.00  0.00     0.157 HD
ATOM     93  H42   C A   3     -38.967   7.397  43.353  1.00  0.00     0.157 HD
ATOM     94 'HO2   C A   3     -42.933   2.472  37.520  1.00  0.00     0.210 HD
BRANCH  67  95
ATOM     95  O3'   T A   4     -37.705   0.750  35.871  1.00  0.00    -0.279 OA
BRANCH  95  96
ATOM     96  P     C A   5     -37.063  -0.679  36.233  1.00  0.00     0.408 P 
ATOM     97  OP1   C A   5     -36.310  -1.142  35.039  1.00  0.00    -0.624 OA
ATOM     98  OP2   C A   5     -38.126  -1.541  36.810  1.00  0.00    -0.624 OA
BRANCH  96  99
ATOM     99  O5'   C A   5     -36.013  -0.350  37.387  1.00  0.00    -0.287 OA
BRANCH  99 100
ATOM    100  C5'   C A   5     -34.771   0.285  37.090  1.00  0.00     0.216 C 
BRANCH 100 101
ATOM    101  C4'   C A   5     -34.214   0.951  38.327  1.00  0.00     0.180 C 
ATOM    102  C3'   C A   5     -33.535   0.029  39.327  1.00  0.00     0.198 C 
ATOM    103  C2'   C A   5     -33.592   0.845  40.615  1.00  0.00     0.199 C 
ATOM    104  C1'   C A   5     -34.938   1.562  40.465  1.00  0.00     0.264 C 
ATOM    105  O4'   C A   5     -35.298   1.532  39.095  1.00  0.00    -0.353 OA
BRANCH 102 106
ATOM    106  O3'   C A   5     -32.200  -0.284  38.939  1.00  0.00    -0.279 OA
BRANCH 106 107
ATOM    107  P     G A   6     -31.457  -1.556  39.586  1.00  0.00     0.408 P 
ATOM    108  OP1   G A   6     -32.373  -2.718  39.444  1.00  0.00    -0.624 OA
ATOM    109  OP2   G A   6     -30.957  -1.176  40.932  1.00  0.00    -0.624 OA
BRANCH 107 110
ATOM    110  O5'   G A   6     -30.199  -1.795  38.636  1.00  0.00    -0.287 OA
BRANCH 110 111
ATOM    111  C5'   G A   6     -30.301  -1.624  37.224  1.00  0.00     0.216 C 
BRANCH 111 112
ATOM    112  C4'   G A   6     -29.249  -0.654  36.735  1.00  0.00     0.180 C 
ATOM    113  C3'   G A   6     -27.990  -1.282  36.157  1.00  0.00     0.198 C 
ATOM    114  C2'   G A   6     -26.970  -0.163  36.322  1.00  0.00     0.199 C 
ATOM    115  C1'   G A   6     -27.386   0.419  37.673  1.00  0.00     0.262 C 
ATOM    116  O4'   G A   6     -28.763   0.135  37.854  1.00  0.00    -0.353 OA
BRANCH 113 117
ATOM    117  O3'   G A   6     -28.169  -1.664  34.796  1.00  0.00    -0.279 OA
ATOM    118  P     T A   7     -28.118  -0.546  33.638  1.00  0.00     0.408 P 
ATOM    119  OP1   T A   7     -28.229  -1.251  32.335  1.00  0.00    -0.624 OA
ATOM    120  OP2   T A   7     -26.959   0.347  33.892  1.00  0.00    -0.624 OA
ATOM    121  O5'   T A   7     -29.450   0.300  33.858  1.00  0.00    -0.287 OA
ATOM    122  C5'   T A   7     -30.735  -0.283  33.641  1.00  0.00     0.216 C 
ATOM    123  C4'   T A   7     -31.816   0.617  34.193  1.00  0.00     0.180 C 
ATOM    124  C3'   T A   7     -31.922   1.990  33.545  1.00  0.00     0.198 C 
ATOM    125  O4'   T A   7     -31.530   0.907  35.584  1.00  0.00    -0.353 OA
ATOM    126  O3'   T A   7     -32.698   1.940  32.350  1.00  0.00    -0.279 OA
ATOM    127  C2'   T A   7     -32.584   2.827  34.635  1.00  0.00     0.199 C 
ATOM    128  P     T A   8     -32.603   3.140  31.283  1.00  0.00     0.408 P 
ATOM    129  OP2   T A   8     -31.329   3.871  31.511  1.00  0.00    -0.624 OA
ATOM    130  OP1   T A   8     -32.890   2.565  29.945  1.00  0.00    -0.624 OA
ATOM    131  O5'   T A   8     -33.806   4.105  31.681  1.00  0.00    -0.287 OA
ATOM    132  C5'   T A   8     -35.164   3.723  31.466  1.00  0.00     0.216 C 
ATOM    133  C4'   T A   8     -36.082   4.895  31.726  1.00  0.00     0.180 C 
ATOM    134  C3'   T A   8     -35.695   6.188  31.018  1.00  0.00     0.198 C 
ATOM    135  O4'   T A   8     -36.038   5.213  33.146  1.00  0.00    -0.353 OA
ATOM    136  C2'   T A   8     -36.215   7.260  31.968  1.00  0.00     0.199 C 
ATOM    137  O3'   T A   8     -36.289   6.279  29.726  1.00  0.00    -0.279 OA
ATOM    138  O2'   T A   8     -37.613   7.432  31.825  1.00  0.00    -0.388 OA
ATOM    139  C1'   T A   8     -35.932   6.614  33.322  1.00  0.00     0.264 C 
ATOM    140 'HO2   T A   8     -37.852   7.036  30.987  1.00  0.00     0.210 HD
ATOM    141  N1    T A   8     -34.596   6.917  33.854  1.00  0.00    -0.280 N 
ATOM    142  C2    T A   8     -34.462   8.022  34.676  1.00  0.00     0.331 A 
ATOM    143  C6    T A   8     -33.512   6.130  33.544  1.00  0.00     0.104 A 
ATOM    144  O2    T A   8     -35.396   8.743  34.976  1.00  0.00    -0.246 OA
ATOM    145  N3    T A   8     -33.191   8.252  35.134  1.00  0.00    -0.275 N 
ATOM    146  H3    T A   8     -33.068   9.055  35.731  1.00  0.00     0.173 HD
ATOM    147  C4    T A   8     -32.065   7.507  34.862  1.00  0.00     0.250 A 
ATOM    148  C5    T A   8     -32.287   6.385  34.010  1.00  0.00     0.092 A 
ATOM    149  O4    T A   8     -30.987   7.839  35.355  1.00  0.00    -0.268 OA
ATOM    150  O2'   T A   7     -33.987   2.643  34.640  1.00  0.00    -0.388 OA
ATOM    151  C1'   T A   7     -32.006   2.201  35.907  1.00  0.00     0.264 C 
ATOM    152 'HO2   T A   7     -34.240   2.377  33.755  1.00  0.00     0.210 HD
ATOM    153  N1    T A   7     -30.899   2.970  36.492  1.00  0.00    -0.280 N 
ATOM    154  C6    T A   7     -29.590   2.564  36.354  1.00  0.00     0.104 A 
ATOM    155  C2    T A   7     -31.216   4.119  37.192  1.00  0.00     0.331 A 
ATOM    156  C5    T A   7     -28.571   3.244  36.886  1.00  0.00     0.092 A 
ATOM    157  C4    T A   7     -28.819   4.441  37.626  1.00  0.00     0.250 A 
ATOM    158  N3    T A   7     -30.146   4.791  37.721  1.00  0.00    -0.275 N 
ATOM    159  O4    T A   7     -27.968   5.150  38.162  1.00  0.00    -0.268 OA
ATOM    160  H3    T A   7     -30.360   5.635  38.230  1.00  0.00     0.173 HD
ATOM    161  O2    T A   7     -32.359   4.515  37.334  1.00  0.00    -0.246 OA
BRANCH 137 162
ATOM    162  P     G A   9     -35.486   6.991  28.527  1.00  0.00     0.408 P 
ATOM    163  OP2   G A   9     -34.847   5.931  27.705  1.00  0.00    -0.624 OA
ATOM    164  OP1   G A   9     -36.416   7.955  27.885  1.00  0.00    -0.624 OA
BRANCH 162 165
ATOM    165  O5'   G A   9     -34.338   7.816  29.261  1.00  0.00    -0.287 OA
BRANCH 165 166
ATOM    166  C5'   G A   9     -34.534   9.180  29.632  1.00  0.00     0.216 C 
ATOM    167  C4'   G A   9     -33.216   9.922  29.619  1.00  0.00     0.180 C 
ATOM    168  C3'   G A   9     -32.522  10.007  28.266  1.00  0.00     0.198 C 
ATOM    169  O4'   G A   9     -32.271   9.218  30.470  1.00  0.00    -0.353 OA
ATOM    170  O3'   G A   9     -32.996  11.111  27.499  1.00  0.00    -0.279 OA
ATOM    171  C2'   G A   9     -31.056  10.161  28.656  1.00  0.00     0.199 C 
ATOM    172  P     G A  10     -32.897  11.073  25.893  1.00  0.00     0.408 P 
ATOM    173  OP1   G A  10     -33.532  12.316  25.385  1.00  0.00    -0.624 OA
ATOM    174  OP2   G A  10     -33.390   9.754  25.421  1.00  0.00    -0.624 OA
ATOM    175  O5'   G A  10     -31.334  11.161  25.595  1.00  0.00    -0.287 OA
ATOM    176  C5'   G A  10     -30.559  12.275  26.040  1.00  0.00     0.216 C 
ATOM    177  C4'   G A  10     -29.096  12.046  25.740  1.00  0.00     0.180 C 
ATOM    178  O4'   G A  10     -28.736  10.701  26.171  1.00  0.00    -0.353 OA
ATOM    179  C3'   G A  10     -28.716  12.126  24.262  1.00  0.00     0.198 C 
ATOM    180  C1'   G A  10     -28.145  10.006  25.096  1.00  0.00     0.262 C 
ATOM    181  C2'   G A  10     -28.683  10.664  23.831  1.00  0.00     0.199 C 
ATOM    182  N9    G A  10     -28.465   8.587  25.222  1.00  0.00    -0.293 N 
ATOM    183  C8    G A  10     -29.626   8.036  25.708  1.00  0.00     0.214 A 
ATOM    184  C4    G A  10     -27.656   7.536  24.868  1.00  0.00     0.187 A 
ATOM    185  N7    G A  10     -29.623   6.730  25.688  1.00  0.00    -0.234 NA
ATOM    186  C5    G A  10     -28.382   6.400  25.158  1.00  0.00     0.173 A 
ATOM    187  C6    G A  10     -27.800   5.131  24.893  1.00  0.00     0.292 A 
ATOM    188  O6    G A  10     -28.279   4.006  25.079  1.00  0.00    -0.265 OA
ATOM    189  N1    G A  10     -26.526   5.257  24.353  1.00  0.00    -0.153 N 
ATOM    190  H1    G A  10     -26.032   4.407  24.128  1.00  0.00     0.187 HD
ATOM    191  C2    G A  10     -25.889   6.446  24.106  1.00  0.00     0.703 A 
ATOM    192  N3    G A  10     -26.416   7.632  24.347  1.00  0.00    -0.044 NA
ATOM    193  N2    G A  10     -24.661   6.361  23.590  1.00  0.00    -0.233 N 
ATOM    194  H22   G A  10     -24.251   5.457  23.397  1.00  0.00     0.174 HD
ATOM    195  H21   G A  10     -24.145   7.205  23.389  1.00  0.00     0.174 HD
ATOM    196  O2'   G A   9     -30.769  11.490  29.053  1.00  0.00    -0.388 OA
ATOM    197  C1'   G A   9     -30.980   9.257  29.887  1.00  0.00     0.262 C 
ATOM    198 'HO2   G A   9     -31.503  12.028  28.757  1.00  0.00     0.210 HD
BRANCH 181 199
ATOM    199  O2'   G A  10     -27.759  10.460  22.778  1.00  0.00    -0.388 OA
ATOM    200 'HO2   G A  10     -26.956  10.924  23.021  1.00  0.00     0.210 HD
ENDBRANCH 181 199
BRANCH 179 201
ATOM    201  O3'   G A  10     -27.452  12.763  24.086  1.00  0.00    -0.279 OA
BRANCH 201 202
ATOM    202  P     T A  11     -26.992  13.922  25.102  1.00  0.00     0.408 P 
ATOM    203  OP2   T A  11     -28.207  14.620  25.596  1.00  0.00    -0.624 OA
ATOM    204  OP1   T A  11     -26.049  13.318  26.076  1.00  0.00    -0.624 OA
BRANCH 202 205
ATOM    205  O5'   T A  11     -26.180  14.939  24.184  1.00  0.00    -0.287 OA
BRANCH 205 206
ATOM    206  C5'   T A  11     -26.697  16.232  23.871  1.00  0.00     0.216 C 
BRANCH 206 207
ATOM    207  C4'   T A  11     -25.608  17.101  23.286  1.00  0.00     0.180 C 
ATOM    208  O4'   T A  11     -26.222  18.247  22.625  1.00  0.00    -0.353 OA
ATOM    209  C1'   T A  11     -25.537  19.433  22.989  1.00  0.00     0.264 C 
ATOM    210  C2'   T A  11     -24.213  18.994  23.611  1.00  0.00     0.199 C 
ATOM    211  N1    T A  11     -26.393  20.206  23.903  1.00  0.00    -0.280 N 
ATOM    212  O2'   T A  11     -23.283  18.739  22.575  1.00  0.00    -0.388 OA
ATOM    213  C3'   T A  11     -24.641  17.706  24.299  1.00  0.00     0.198 C 
ATOM    214 'HO2   T A  11     -22.765  17.982  22.851  1.00  0.00     0.210 HD
ATOM    215  O3'   T A  11     -23.543  16.838  24.562  1.00  0.00    -0.279 OA
ATOM    216  P     C A  12     -22.944  16.734  26.053  1.00  0.00     0.408 P 
ATOM    217  O5'   C A  12     -22.173  18.114  26.254  1.00  0.00    -0.287 OA
ATOM    218  OP2   C A  12     -24.076  16.695  27.013  1.00  0.00    -0.624 OA
ATOM    219  OP1   C A  12     -21.943  15.638  26.054  1.00  0.00    -0.624 OA
ATOM    220  C5'   C A  12     -20.941  18.373  25.582  1.00  0.00     0.216 C 
ATOM    221  C4'   C A  12     -20.506  19.802  25.818  1.00  0.00     0.180 C 
ATOM    222  O4'   C A  12     -21.569  20.698  25.390  1.00  0.00    -0.353 OA
ATOM    223  C3'   C A  12     -20.258  20.180  27.270  1.00  0.00     0.198 C 
ATOM    224  C1'   C A  12     -21.653  21.798  26.280  1.00  0.00     0.264 C 
ATOM    225  C2'   C A  12     -20.484  21.686  27.256  1.00  0.00     0.199 C 
ATOM    226  N1    C A  12     -22.972  21.769  26.935  1.00  0.00    -0.278 N 
ATOM    227  C6    C A  12     -23.772  20.664  26.853  1.00  0.00     0.102 A 
ATOM    228  C2    C A  12     -23.396  22.895  27.649  1.00  0.00     0.352 A 
ATOM    229  C5    C A  12     -24.973  20.635  27.444  1.00  0.00     0.067 A 
ATOM    230  C4    C A  12     -25.380  21.798  28.161  1.00  0.00     0.128 A 
ATOM    231  N3    C A  12     -24.606  22.880  28.251  1.00  0.00    -0.177 NA
ATOM    232  N4    C A  12     -26.565  21.829  28.769  1.00  0.00    -0.384 N 
ATOM    233  H42   C A  12     -26.847  22.657  29.275  1.00  0.00     0.157 HD
ATOM    234  H41   C A  12     -27.181  21.031  28.725  1.00  0.00     0.157 HD
ATOM    235  O2    C A  12     -22.650  23.883  27.713  1.00  0.00    -0.244 OA
ATOM    236  C6    T A  11     -27.603  19.713  24.337  1.00  0.00     0.104 A 
ATOM    237  C2    T A  11     -25.941  21.445  24.317  1.00  0.00     0.331 A 
ATOM    238  C5    T A  11     -28.389  20.387  25.181  1.00  0.00     0.092 A 
ATOM    239  C4    T A  11     -27.985  21.668  25.663  1.00  0.00     0.250 A 
ATOM    240  N3    T A  11     -26.773  22.106  25.181  1.00  0.00    -0.275 N 
ATOM    241  O4    T A  11     -28.602  22.367  26.467  1.00  0.00    -0.268 OA
ATOM    242  H3    T A  11     -26.463  23.013  25.500  1.00  0.00     0.173 HD
ATOM    243  O2    T A  11     -24.885  21.921  23.948  1.00  0.00    -0.246 OA
BRANCH 225 244
ATOM    244  O2'   C A  12     -19.370  22.368  26.710  1.00  0.00    -0.388 OA
ATOM    245 'HO2   C A  12     -19.180  21.961  25.865  1.00  0.00     0.210 HD
ENDBRANCH 225 244
BRANCH 223 246
ATOM    246  O3'   C A  12     -18.941  19.832  27.692  1.00  0.00    -0.279 OA
BRANCH 246 247
ATOM    247  P     T A  13     -18.737  18.847  28.948  1.00  0.00     0.408 P 
ATOM    248  OP2   T A  13     -17.286  18.761  29.250  1.00  0.00    -0.624 OA
ATOM    249  OP1   T A  13     -19.682  19.279  30.008  1.00  0.00    -0.624 OA
BRANCH 247 250
ATOM    250  O5'   T A  13     -19.213  17.426  28.406  1.00  0.00    -0.287 OA
BRANCH 250 251
ATOM    251  C5'   T A  13     -20.333  16.757  28.982  1.00  0.00     0.216 C 
BRANCH 251 252
ATOM    252  C4'   T A  13     -20.019  16.329  30.397  1.00  0.00     0.180 C 
ATOM    253  O4'   T A  13     -21.197  16.529  31.227  1.00  0.00    -0.353 OA
ATOM    254  C1'   T A  13     -21.313  15.461  32.156  1.00  0.00     0.264 C 
ATOM    255  C2'   T A  13     -20.040  14.625  32.040  1.00  0.00     0.199 C 
ATOM    256  O2'   T A  13     -19.059  15.167  32.904  1.00  0.00    -0.388 OA
ATOM    257  C3'   T A  13     -19.678  14.857  30.581  1.00  0.00     0.198 C 
ATOM    258 'HO2   T A  13     -18.257  15.258  32.389  1.00  0.00     0.210 HD
ATOM    259  O3'   T A  13     -18.305  14.589  30.310  1.00  0.00    -0.279 OA
ATOM    260  P     C A  14     -17.847  13.104  29.896  1.00  0.00     0.408 P 
ATOM    261  O5'   C A  14     -18.127  12.235  31.203  1.00  0.00    -0.287 OA
ATOM    262  OP1   C A  14     -16.380  13.138  29.668  1.00  0.00    -0.624 OA
ATOM    263  OP2   C A  14     -18.747  12.620  28.818  1.00  0.00    -0.624 OA
ATOM    264  C5'   C A  14     -17.412  12.479  32.413  1.00  0.00     0.216 C 
ATOM    265  C4'   C A  14     -17.875  11.532  33.496  1.00  0.00     0.180 C 
ATOM    266  O4'   C A  14     -19.238  11.864  33.878  1.00  0.00    -0.353 OA
ATOM    267  C3'   C A  14     -17.960  10.064  33.104  1.00  0.00     0.198 C 
ATOM    268  C1'   C A  14     -19.938  10.676  34.218  1.00  0.00     0.264 C 
ATOM    269  C2'   C A  14     -18.939   9.522  34.135  1.00  0.00     0.199 C 
ATOM    270  N1    C A  14     -21.083  10.529  33.302  1.00  0.00    -0.278 N 
ATOM    271  O2'   C A  14     -18.317   9.367  35.397  1.00  0.00    -0.388 OA
ATOM    272 'HO2   C A  14     -17.375   9.312  35.234  1.00  0.00     0.210 HD
ATOM    273  C2    C A  14     -22.182   9.769  33.712  1.00  0.00     0.352 A 
ATOM    274  C6    C A  14     -21.075  11.122  32.070  1.00  0.00     0.102 A 
ATOM    275  O2    C A  14     -22.164   9.244  34.833  1.00  0.00    -0.244 OA
ATOM    276  N3    C A  14     -23.235   9.627  32.878  1.00  0.00    -0.177 NA
ATOM    277  C4    C A  14     -23.220  10.213  31.680  1.00  0.00     0.128 A 
ATOM    278  C5    C A  14     -22.115  10.994  31.235  1.00  0.00     0.067 A 
ATOM    279  N4    C A  14     -24.284  10.049  30.894  1.00  0.00    -0.384 N 
ATOM    280  H42   C A  14     -25.063   9.491  31.215  1.00  0.00     0.157 HD
ATOM    281  H41   C A  14     -24.314  10.475  29.981  1.00  0.00     0.157 HD
ATOM    282  O3'   C A  14     -16.690   9.419  33.160  1.00  0.00    -0.279 OA
ATOM    283  P     G A  15     -16.436   8.084  32.299  1.00  0.00     0.408 P 
ATOM    284  OP1   G A  15     -15.017   7.695  32.497  1.00  0.00    -0.624 OA
ATOM    285  OP2   G A  15     -16.950   8.305  30.923  1.00  0.00    -0.624 OA
ATOM    286  O5'   G A  15     -17.354   6.988  33.004  1.00  0.00    -0.287 OA
ATOM    287  C5'   G A  15     -17.141   6.621  34.366  1.00  0.00     0.216 C 
ATOM    288  C4'   G A  15     -18.118   5.543  34.778  1.00  0.00     0.180 C 
ATOM    289  O4'   G A  15     -19.447   6.114  34.903  1.00  0.00    -0.353 OA
ATOM    290  C3'   G A  15     -18.317   4.409  33.787  1.00  0.00     0.198 C 
ATOM    291  C1'   G A  15     -20.413   5.121  34.598  1.00  0.00     0.262 C 
ATOM    292  N9    G A  15     -21.273   5.621  33.529  1.00  0.00    -0.293 N 
ATOM    293  C2'   G A  15     -19.663   3.842  34.223  1.00  0.00     0.199 C 
ATOM    294  C8    G A  15     -21.005   6.647  32.657  1.00  0.00     0.214 A 
ATOM    295  C4    G A  15     -22.518   5.148  33.197  1.00  0.00     0.187 A 
ATOM    296  N7    G A  15     -21.970   6.865  31.805  1.00  0.00    -0.234 NA
ATOM    297  C5    G A  15     -22.934   5.921  32.135  1.00  0.00     0.173 A 
ATOM    298  C6    G A  15     -24.206   5.664  31.559  1.00  0.00     0.292 A 
ATOM    299  N1    G A  15     -24.855   4.616  32.202  1.00  0.00    -0.153 N 
ATOM    300  O6    G A  15     -24.753   6.236  30.611  1.00  0.00    -0.265 OA
ATOM    301  H1    G A  15     -25.770   4.362  31.862  1.00  0.00     0.187 HD
ATOM    302  C2    G A  15     -24.348   3.907  33.260  1.00  0.00     0.703 A 
ATOM    303  N3    G A  15     -23.167   4.133  33.805  1.00  0.00    -0.044 NA
ATOM    304  N2    G A  15     -25.123   2.933  33.743  1.00  0.00    -0.233 N 
ATOM    305  H21   G A  15     -24.796   2.380  34.522  1.00  0.00     0.174 HD
ATOM    306  H22   G A  15     -26.027   2.749  33.331  1.00  0.00     0.174 HD
ATOM    307  O2'   G A  15     -19.529   3.039  35.381  1.00  0.00    -0.388 OA
ATOM    308 'HO2   G A  15     -18.607   2.785  35.433  1.00  0.00     0.210 HD
ATOM    309  O3'   G A  15     -17.270   3.445  33.858  1.00  0.00    -0.279 OA
ATOM    310  P     C A  16     -16.958   2.510  32.587  1.00  0.00     0.408 P 
ATOM    311  OP2   C A  16     -16.764   3.379  31.400  1.00  0.00    -0.624 OA
ATOM    312  O5'   C A  16     -18.304   1.679  32.380  1.00  0.00    -0.287 OA
ATOM    313  OP1   C A  16     -15.887   1.562  32.987  1.00  0.00    -0.624 OA
ATOM    314  C5'   C A  16     -18.731   0.724  33.349  1.00  0.00     0.216 C 
ATOM    315  C4'   C A  16     -20.071   0.143  32.956  1.00  0.00     0.180 C 
ATOM    316  O4'   C A  16     -21.073   1.192  32.955  1.00  0.00    -0.353 OA
ATOM    317  C3'   C A  16     -20.161  -0.430  31.551  1.00  0.00     0.198 C 
ATOM    318  C1'   C A  16     -22.074   0.885  31.999  1.00  0.00     0.264 C 
ATOM    319  N1    C A  16     -22.220   2.030  31.085  1.00  0.00    -0.278 N 
ATOM    320  C2'   C A  16     -21.664  -0.409  31.292  1.00  0.00     0.199 C 
ATOM    321  C2    C A  16     -23.411   2.172  30.370  1.00  0.00     0.352 A 
ATOM    322  C6    C A  16     -21.211   2.941  30.933  1.00  0.00     0.102 A 
ATOM    323  N3    C A  16     -23.555   3.217  29.526  1.00  0.00    -0.177 NA
ATOM    324  O2    C A  16     -24.310   1.336  30.525  1.00  0.00    -0.244 OA
ATOM    325  C4    C A  16     -22.568   4.103  29.386  1.00  0.00     0.128 A 
ATOM    326  C5    C A  16     -21.341   3.985  30.103  1.00  0.00     0.067 A 
ATOM    327  N4    C A  16     -22.760   5.119  28.548  1.00  0.00    -0.384 N 
ATOM    328  H41   C A  16     -22.038   5.812  28.414  1.00  0.00     0.157 HD
ATOM    329  H42   C A  16     -23.631   5.192  28.042  1.00  0.00     0.157 HD
BRANCH 254 330
ATOM    330  N1    T A  13     -22.540  14.712  31.851  1.00  0.00    -0.280 N 
ATOM    331  C6    T A  13     -23.074  14.702  30.583  1.00  0.00     0.104 A 
ATOM    332  C5    T A  13     -24.191  14.035  30.281  1.00  0.00     0.092 A 
ATOM    333  C4    T A  13     -24.873  13.291  31.292  1.00  0.00     0.250 A 
ATOM    334  N3    T A  13     -24.285  13.339  32.534  1.00  0.00    -0.275 N 
ATOM    335  O4    T A  13     -25.905  12.638  31.138  1.00  0.00    -0.268 OA
ATOM    336  C2    T A  13     -23.144  14.014  32.882  1.00  0.00     0.331 A 
ATOM    337  H3    T A  13     -24.738  12.820  33.271  1.00  0.00     0.173 HD
ATOM    338  O2    T A  13     -22.702  13.993  34.015  1.00  0.00    -0.246 OA
ENDBRANCH 254 330
BRANCH 320 339
ATOM    339  O2'   C A  16     -22.305  -1.496  31.932  1.00  0.00    -0.388 OA
ATOM    340 'HO2   C A  16     -21.936  -2.295  31.556  1.00  0.00     0.210 HD
ENDBRANCH 320 339
BRANCH 317 341
ATOM    341  O3'   C A  16     -19.614  -1.743  31.476  1.00  0.00    -0.279 OA
BRANCH 341 342
ATOM    342  P     T A  17     -18.234  -1.990  30.684  1.00  0.00     0.408 P 
ATOM    343  OP2   T A  17     -18.413  -3.158  29.786  1.00  0.00    -0.624 OA
ATOM    344  OP1   T A  17     -17.809  -0.685  30.117  1.00  0.00    -0.624 OA
BRANCH 342 345
ATOM    345  O5'   T A  17     -17.202  -2.397  31.828  1.00  0.00    -0.287 OA
BRANCH 345 346
ATOM    346  C5'   T A  17     -15.960  -1.712  31.975  1.00  0.00     0.216 C 
BRANCH 346 347
ATOM    347  C4'   T A  17     -15.033  -2.494  32.878  1.00  0.00     0.180 C 
ATOM    348  O4'   T A  17     -13.677  -2.402  32.365  1.00  0.00    -0.353 OA
ATOM    349  C1'   T A  17     -12.759  -2.396  33.445  1.00  0.00     0.264 C 
ATOM    350  N1    T A  17     -11.957  -1.166  33.364  1.00  0.00    -0.280 N 
ATOM    351  C2'   T A  17     -13.562  -2.525  34.740  1.00  0.00     0.199 C 
ATOM    352  C2    T A  17     -10.638  -1.226  33.779  1.00  0.00     0.331 A 
ATOM    353  C6    T A  17     -12.499   0.008  32.892  1.00  0.00     0.104 A 
ATOM    354  N3    T A  17      -9.945  -0.048  33.680  1.00  0.00    -0.275 N 
ATOM    355  O2    T A  17     -10.123  -2.244  34.203  1.00  0.00    -0.246 OA
ATOM    356  C4    T A  17     -10.421   1.156  33.215  1.00  0.00     0.250 A 
ATOM    357  H3    T A  17      -8.985  -0.059  33.993  1.00  0.00     0.173 HD
ATOM    358  C5    T A  17     -11.791   1.137  32.806  1.00  0.00     0.092 A 
ATOM    359  O4    T A  17      -9.671   2.132  33.188  1.00  0.00    -0.268 OA
ATOM    360  C3'   T A  17     -14.921  -1.985  34.308  1.00  0.00     0.198 C 
ATOM    361  O2'   T A  17     -13.647  -3.894  35.086  1.00  0.00    -0.388 OA
ATOM    362 'HO2   T A  17     -14.579  -4.107  35.144  1.00  0.00     0.210 HD
BRANCH 360 363
ATOM    363  O3'   T A  17     -15.986  -2.471  35.121  1.00  0.00    -0.279 OA
BRANCH 363 364
ATOM    364  P     T A  18     -16.615  -1.528  36.261  1.00  0.00     0.408 P 
ATOM    365  OP2   T A  18     -16.031  -1.919  37.570  1.00  0.00    -0.624 OA
ATOM    366  OP1   T A  18     -16.493  -0.125  35.792  1.00  0.00    -0.624 OA
BRANCH 364 367
ATOM    367  O5'   T A  18     -18.161  -1.918  36.273  1.00  0.00    -0.287 OA
BRANCH 367 368
ATOM    368  C5'   T A  18     -19.168  -0.925  36.465  1.00  0.00     0.216 C 
ATOM    369  C4'   T A  18     -20.537  -1.526  36.256  1.00  0.00     0.180 C 
ATOM    370  C3'   T A  18     -20.793  -2.837  36.988  1.00  0.00     0.198 C 
ATOM    371  O4'   T A  18     -20.696  -1.858  34.851  1.00  0.00    -0.353 OA
ATOM    372  C2'   T A  18     -21.860  -3.498  36.123  1.00  0.00     0.199 C 
ATOM    373  O3'   T A  18     -21.238  -2.612  38.323  1.00  0.00    -0.279 OA
ATOM    374  C1'   T A  18     -21.426  -3.065  34.722  1.00  0.00     0.264 C 
ATOM    375  O2'   T A  18     -23.140  -2.957  36.390  1.00  0.00    -0.388 OA
ATOM    376  N1    T A  18     -20.574  -4.050  34.039  1.00  0.00    -0.280 N 
ATOM    377  C6    T A  18     -19.255  -4.221  34.394  1.00  0.00     0.104 A 
ATOM    378  C2    T A  18     -21.144  -4.802  33.028  1.00  0.00     0.331 A 
ATOM    379  C5    T A  18     -18.464  -5.115  33.795  1.00  0.00     0.092 A 
ATOM    380  C4    T A  18     -18.979  -5.935  32.744  1.00  0.00     0.250 A 
ATOM    381  O4    T A  18     -18.352  -6.790  32.121  1.00  0.00    -0.268 OA
ATOM    382  N3    T A  18     -20.302  -5.710  32.438  1.00  0.00    -0.275 N 
ATOM    383  H3    T A  18     -20.699  -6.275  31.701  1.00  0.00     0.173 HD
ATOM    384  O2    T A  18     -22.303  -4.676  32.681  1.00  0.00    -0.246 OA
ATOM    385 'HO2   T A  18     -23.078  -2.498  37.228  1.00  0.00     0.210 HD
ATOM    386  P     T A  19     -20.187  -2.669  39.540  1.00  0.00     0.408 P 
ATOM    387  O5'   T A  19     -20.592  -3.992  40.332  1.00  0.00    -0.287 OA
ATOM    388  OP2   T A  19     -18.818  -2.856  38.995  1.00  0.00    -0.624 OA
ATOM    389  OP1   T A  19     -20.472  -1.509  40.421  1.00  0.00    -0.624 OA
ATOM    390  C5'   T A  19     -20.638  -5.259  39.675  1.00  0.00     0.216 C 
ATOM    391  C4'   T A  19     -21.988  -5.907  39.887  1.00  0.00     0.180 C 
ATOM    392  O4'   T A  19     -22.147  -6.191  41.305  1.00  0.00    -0.353 OA
ATOM    393  C3'   T A  19     -23.191  -5.048  39.506  1.00  0.00     0.198 C 
ATOM    394  C1'   T A  19     -23.234  -5.450  41.822  1.00  0.00     0.264 C 
ATOM    395  N1    T A  19     -22.868  -4.961  43.159  1.00  0.00    -0.280 N 
ATOM    396  C2'   T A  19     -23.533  -4.345  40.813  1.00  0.00     0.199 C 
ATOM    397  C2    T A  19     -23.697  -5.289  44.217  1.00  0.00     0.331 A 
ATOM    398  C6    T A  19     -21.737  -4.202  43.356  1.00  0.00     0.104 A 
ATOM    399  O2    T A  19     -24.706  -5.959  44.085  1.00  0.00    -0.246 OA
ATOM    400  N3    T A  19     -23.302  -4.802  45.436  1.00  0.00    -0.275 N 
ATOM    401  H3    T A  19     -23.893  -5.029  46.221  1.00  0.00     0.173 HD
ATOM    402  C4    T A  19     -22.189  -4.039  45.702  1.00  0.00     0.250 A 
ATOM    403  C5    T A  19     -21.383  -3.744  44.560  1.00  0.00     0.092 A 
ATOM    404  O4    T A  19     -21.968  -3.678  46.858  1.00  0.00    -0.268 OA
ATOM    405  O2'   T A  19     -24.910  -4.026  40.880  1.00  0.00    -0.388 OA
ATOM    406 'HO2   T A  19     -25.359  -4.620  40.276  1.00  0.00     0.210 HD
ATOM    407  O3'   T A  19     -24.272  -5.847  39.031  1.00  0.00    -0.279 OA
ATOM    408  P     G A  20     -24.601  -5.899  37.458  1.00  0.00     0.408 P 
ATOM    409  O5'   G A  20     -25.617  -7.119  37.317  1.00  0.00    -0.287 OA
ATOM    410  OP1   G A  20     -23.348  -6.260  36.750  1.00  0.00    -0.624 OA
ATOM    411  OP2   G A  20     -25.320  -4.650  37.095  1.00  0.00    -0.624 OA
ATOM    412  C5'   G A  20     -25.535  -8.248  38.186  1.00  0.00     0.216 C 
ATOM    413  C4'   G A  20     -26.308  -9.409  37.605  1.00  0.00     0.180 C 
ATOM    414  C3'   G A  20     -25.797  -9.918  36.261  1.00  0.00     0.198 C 
ATOM    415  O4'   G A  20     -27.677  -8.980  37.370  1.00  0.00    -0.353 OA
ATOM    416  O3'   G A  20     -25.991 -11.325  36.128  1.00  0.00    -0.279 OA
ATOM    417  C2'   G A  20     -26.620  -9.123  35.252  1.00  0.00     0.199 C 
ATOM    418  P     G A  21     -24.732 -12.281  35.832  1.00  0.00     0.408 P 
ATOM    419  OP1   G A  21     -25.231 -13.418  35.019  1.00  0.00    -0.624 OA
ATOM    420  O5'   G A  21     -23.771 -11.392  34.922  1.00  0.00    -0.287 OA
ATOM    421  OP2   G A  21     -24.041 -12.548  37.119  1.00  0.00    -0.624 OA
ATOM    422  C5'   G A  21     -24.177 -10.963  33.624  1.00  0.00     0.216 C 
ATOM    423  C4'   G A  21     -23.212 -11.473  32.577  1.00  0.00     0.180 C 
ATOM    424  C3'   G A  21     -23.863 -11.911  31.266  1.00  0.00     0.198 C 
ATOM    425  O4'   G A  21     -22.536 -12.655  33.096  1.00  0.00    -0.353 OA
ATOM    426  C2'   G A  21     -23.987 -13.422  31.426  1.00  0.00     0.199 C 
ATOM    427  O3'   G A  21     -23.062 -11.560  30.139  1.00  0.00    -0.279 OA
ATOM    428  C1'   G A  21     -22.713 -13.732  32.203  1.00  0.00     0.262 C 
ATOM    429  O2'   G A  21     -23.929 -14.076  30.172  1.00  0.00    -0.388 OA
ATOM    430  N9    G A  21     -22.747 -14.971  32.975  1.00  0.00    -0.293 N 
ATOM    431  C8    G A  21     -23.851 -15.592  33.507  1.00  0.00     0.214 A 
ATOM    432  C4    G A  21     -21.666 -15.750  33.312  1.00  0.00     0.187 A 
ATOM    433  N7    G A  21     -23.565 -16.691  34.149  1.00  0.00    -0.234 NA
ATOM    434  C5    G A  21     -22.186 -16.804  34.034  1.00  0.00     0.173 A 
ATOM    435  C6    G A  21     -21.297 -17.795  34.529  1.00  0.00     0.292 A 
ATOM    436  O6    G A  21     -21.559 -18.807  35.190  1.00  0.00    -0.265 OA
ATOM    437  N1    G A  21     -19.979 -17.519  34.183  1.00  0.00    -0.153 N 
ATOM    438  H1    G A  21     -19.279 -18.174  34.494  1.00  0.00     0.187 HD
ATOM    439  C2    G A  21     -19.567 -16.434  33.455  1.00  0.00     0.703 A 
ATOM    440  N2    G A  21     -18.255 -16.343  33.224  1.00  0.00    -0.233 N 
ATOM    441  N3    G A  21     -20.379 -15.503  32.988  1.00  0.00    -0.044 NA
ATOM    442  H22   G A  21     -17.620 -17.044  33.575  1.00  0.00     0.174 HD
ATOM    443  H21   G A  21     -17.904 -15.559  32.692  1.00  0.00     0.174 HD
ATOM    444 'HO2   G A  21     -23.600 -13.431  29.545  1.00  0.00     0.210 HD
ATOM    445  P     G A  22     -23.189 -10.092  29.493  1.00  0.00     0.408 P 
ATOM    446  OP1   G A  22     -22.845 -10.217  28.053  1.00  0.00    -0.624 OA
ATOM    447  O5'   G A  22     -24.742  -9.749  29.601  1.00  0.00    -0.287 OA
ATOM    448  OP2   G A  22     -22.439  -9.135  30.344  1.00  0.00    -0.624 OA
ATOM    449  C5'   G A  22     -25.714 -10.478  28.852  1.00  0.00     0.216 C 
ATOM    450  C4'   G A  22     -27.091  -9.902  29.089  1.00  0.00     0.180 C 
ATOM    451  O4'   G A  22     -27.323  -9.822  30.524  1.00  0.00    -0.353 OA
ATOM    452  C3'   G A  22     -27.298  -8.484  28.574  1.00  0.00     0.198 C 
ATOM    453  C1'   G A  22     -27.927  -8.583  30.844  1.00  0.00     0.262 C 
ATOM    454  C2'   G A  22     -28.345  -7.926  29.530  1.00  0.00     0.199 C 
ATOM    455  N9    G A  22     -26.975  -7.793  31.619  1.00  0.00    -0.293 N 
ATOM    456  O2'   G A  22     -29.642  -8.378  29.186  1.00  0.00    -0.388 OA
ATOM    457 'HO2   G A  22     -29.599  -8.658  28.271  1.00  0.00     0.210 HD
ATOM    458  C8    G A  22     -25.686  -8.137  31.947  1.00  0.00     0.214 A 
ATOM    459  C4    G A  22     -27.194  -6.552  32.165  1.00  0.00     0.187 A 
ATOM    460  N7    G A  22     -25.073  -7.226  32.652  1.00  0.00    -0.234 NA
ATOM    461  C5    G A  22     -26.016  -6.216  32.799  1.00  0.00     0.173 A 
ATOM    462  C6    G A  22     -25.932  -4.968  33.469  1.00  0.00     0.292 A 
ATOM    463  O6    G A  22     -24.977  -4.488  34.089  1.00  0.00    -0.265 OA
ATOM    464  N1    G A  22     -27.118  -4.253  33.367  1.00  0.00    -0.153 N 
ATOM    465  C2    G A  22     -28.242  -4.680  32.707  1.00  0.00     0.703 A 
ATOM    466  H1    G A  22     -27.149  -3.351  33.816  1.00  0.00     0.187 HD
ATOM    467  N3    G A  22     -28.337  -5.838  32.081  1.00  0.00    -0.044 NA
ATOM    468  N2    G A  22     -29.285  -3.846  32.721  1.00  0.00    -0.233 N 
ATOM    469  H21   G A  22     -30.136  -4.113  32.248  1.00  0.00     0.174 HD
ATOM    470  H22   G A  22     -29.225  -2.959  33.198  1.00  0.00     0.174 HD
ATOM    471  O3'   G A  22     -27.743  -8.485  27.220  1.00  0.00    -0.279 OA
ATOM    472  P     T A  23     -27.150  -7.410  26.181  1.00  0.00     0.408 P 
ATOM    473  O5'   T A  23     -27.475  -6.003  26.855  1.00  0.00    -0.287 OA
ATOM    474  OP2   T A  23     -25.675  -7.571  26.131  1.00  0.00    -0.624 OA
ATOM    475  OP1   T A  23     -27.944  -7.518  24.932  1.00  0.00    -0.624 OA
ATOM    476  C5'   T A  23     -28.821  -5.596  27.096  1.00  0.00     0.216 C 
ATOM    477  C4'   T A  23     -28.841  -4.303  27.876  1.00  0.00     0.180 C 
ATOM    478  C3'   T A  23     -28.034  -3.165  27.267  1.00  0.00     0.198 C 
ATOM    479  O4'   T A  23     -28.233  -4.527  29.178  1.00  0.00    -0.353 OA
ATOM    480  O3'   T A  23     -28.797  -2.442  26.305  1.00  0.00    -0.279 OA
ATOM    481  C2'   T A  23     -27.678  -2.324  28.486  1.00  0.00     0.199 C 
ATOM    482  P     G A  24     -28.167  -2.121  24.860  1.00  0.00     0.408 P 
ATOM    483  OP2   G A  24     -27.410  -3.314  24.398  1.00  0.00    -0.624 OA
ATOM    484  OP1   G A  24     -29.258  -1.573  24.016  1.00  0.00    -0.624 OA
ATOM    485  O5'   G A  24     -27.126  -0.950  25.146  1.00  0.00    -0.287 OA
ATOM    486  C5'   G A  24     -27.520   0.226  25.850  1.00  0.00     0.216 C 
ATOM    487  C4'   G A  24     -26.302   1.004  26.291  1.00  0.00     0.180 C 
ATOM    488  O4'   G A  24     -25.643   0.286  27.369  1.00  0.00    -0.353 OA
ATOM    489  C3'   G A  24     -25.215   1.176  25.243  1.00  0.00     0.198 C 
ATOM    490  C1'   G A  24     -24.239   0.461  27.265  1.00  0.00     0.262 C 
ATOM    491  C2'   G A  24     -23.978   1.414  26.099  1.00  0.00     0.199 C 
ATOM    492  N9    G A  24     -23.622  -0.851  27.096  1.00  0.00    -0.293 N 
ATOM    493  O2'   G A  24     -23.946   2.740  26.593  1.00  0.00    -0.388 OA
ATOM    494 'HO2   G A  24     -24.544   3.252  26.047  1.00  0.00     0.210 HD
ATOM    495  C4    G A  24     -22.280  -1.139  27.172  1.00  0.00     0.187 A 
ATOM    496  C8    G A  24     -24.256  -2.040  26.829  1.00  0.00     0.214 A 
ATOM    497  C5    G A  24     -22.183  -2.496  26.948  1.00  0.00     0.173 A 
ATOM    498  N3    G A  24     -21.293  -0.253  27.417  1.00  0.00    -0.044 NA
ATOM    499  C6    G A  24     -20.897  -3.101  26.965  1.00  0.00     0.292 A 
ATOM    500  N7    G A  24     -23.438  -3.051  26.733  1.00  0.00    -0.234 NA
ATOM    501  O6    G A  24     -20.600  -4.288  26.791  1.00  0.00    -0.265 OA
ATOM    502  N1    G A  24     -19.898  -2.169  27.219  1.00  0.00    -0.153 N 
ATOM    503  H1    G A  24     -18.949  -2.507  27.250  1.00  0.00     0.187 HD
ATOM    504  C2    G A  24     -20.104  -0.829  27.429  1.00  0.00     0.703 A 
ATOM    505  N2    G A  24     -19.013  -0.094  27.657  1.00  0.00    -0.233 N 
ATOM    506  H22   G A  24     -18.100  -0.527  27.668  1.00  0.00     0.174 HD
ATOM    507  H21   G A  24     -19.109   0.897  27.817  1.00  0.00     0.174 HD
ATOM    508  O3'   G A  24     -25.494   2.265  24.368  1.00  0.00    -0.279 OA
ATOM    509  P     C A  25     -24.918   2.253  22.866  1.00  0.00     0.408 P 
ATOM    510  OP2   C A  25     -25.159   0.911  22.277  1.00  0.00    -0.624 OA
ATOM    511  OP1   C A  25     -25.448   3.459  22.181  1.00  0.00    -0.624 OA
ATOM    512  O5'   C A  25     -23.347   2.438  23.053  1.00  0.00    -0.287 OA
ATOM    513  C5'   C A  25     -22.816   3.606  23.676  1.00  0.00     0.216 C 
ATOM    514  C1'   T A  23     -27.435  -3.410  29.533  1.00  0.00     0.264 C 
ATOM    515  O2'   T A  23     -28.775  -1.531  28.899  1.00  0.00    -0.388 OA
ATOM    516  N1    T A  23     -26.034  -3.849  29.616  1.00  0.00    -0.280 N 
ATOM    517  C6    T A  23     -25.505  -4.728  28.697  1.00  0.00     0.104 A 
ATOM    518  C2    T A  23     -25.261  -3.345  30.647  1.00  0.00     0.331 A 
ATOM    519  C5    T A  23     -24.231  -5.129  28.744  1.00  0.00     0.092 A 
ATOM    520  C4    T A  23     -23.365  -4.646  29.774  1.00  0.00     0.250 A 
ATOM    521  O4    T A  23     -22.169  -4.909  29.896  1.00  0.00    -0.268 OA
ATOM    522  N3    T A  23     -23.962  -3.781  30.663  1.00  0.00    -0.275 N 
ATOM    523  H3    T A  23     -23.383  -3.441  31.417  1.00  0.00     0.173 HD
ATOM    524  O2    T A  23     -25.696  -2.572  31.483  1.00  0.00    -0.246 OA
ATOM    525 'HO2   T A  23     -29.334  -1.413  28.130  1.00  0.00     0.210 HD
ATOM    526  C1'   G A  20     -27.954  -8.994  35.983  1.00  0.00     0.262 C 
ATOM    527  O2'   G A  20     -26.830  -9.864  34.066  1.00  0.00    -0.388 OA
ATOM    528  N9    G A  20     -28.688  -7.777  35.651  1.00  0.00    -0.293 N 
ATOM    529  C8    G A  20     -28.262  -6.482  35.812  1.00  0.00     0.214 A 
ATOM    530  C4    G A  20     -29.948  -7.705  35.108  1.00  0.00     0.187 A 
ATOM    531  N7    G A  20     -29.137  -5.598  35.419  1.00  0.00    -0.234 NA
ATOM    532  C5    G A  20     -30.210  -6.358  34.970  1.00  0.00     0.173 A 
ATOM    533  C6    G A  20     -31.456  -5.957  34.423  1.00  0.00     0.292 A 
ATOM    534  N1    G A  20     -32.250  -7.054  34.103  1.00  0.00    -0.153 N 
ATOM    535  O6    G A  20     -31.878  -4.813  34.217  1.00  0.00    -0.265 OA
ATOM    536  H1    G A  20     -33.157  -6.864  33.707  1.00  0.00     0.187 HD
ATOM    537  C2    G A  20     -31.891  -8.365  34.283  1.00  0.00     0.703 A 
ATOM    538  N3    G A  20     -30.736  -8.753  34.789  1.00  0.00    -0.044 NA
ATOM    539  N2    G A  20     -32.794  -9.278  33.915  1.00  0.00    -0.233 N 
ATOM    540  H21   G A  20     -32.575 -10.257  34.030  1.00  0.00     0.174 HD
ATOM    541  H22   G A  20     -33.681  -8.997  33.527  1.00  0.00     0.174 HD
ATOM    542 'HO2   G A  20     -26.842 -10.789  34.314  1.00  0.00     0.210 HD
BRANCH 513 543
ATOM    543  C4'   C A  25     -21.305   3.554  23.688  1.00  0.00     0.180 C 
ATOM    544  C3'   C A  25     -20.596   4.699  22.979  1.00  0.00     0.198 C 
ATOM    545  C2'   C A  25     -19.246   4.077  22.649  1.00  0.00     0.199 C 
ATOM    546  C1'   C A  25     -19.672   2.664  22.253  1.00  0.00     0.264 C 
ATOM    547  O4'   C A  25     -20.862   2.369  22.968  1.00  0.00    -0.353 OA
BRANCH 544 548
ATOM    548  O3'   C A  25     -20.478   5.853  23.806  1.00  0.00    -0.279 OA
BRANCH 548 549
ATOM    549  P     G A  26     -20.805   5.744  25.377  1.00  0.00     0.408 P 
ATOM    550  OP2   G A  26     -22.247   6.039  25.582  1.00  0.00    -0.624 OA
ATOM    551  OP1   G A  26     -20.247   4.452  25.853  1.00  0.00    -0.624 OA
BRANCH 549 552
ATOM    552  O5'   G A  26     -19.956   6.923  26.032  1.00  0.00    -0.287 OA
BRANCH 552 553
ATOM    553  C5'   G A  26     -20.435   7.619  27.181  1.00  0.00     0.216 C 
ATOM    554  C4'   G A  26     -20.278   9.112  26.996  1.00  0.00     0.180 C 
ATOM    555  C3'   G A  26     -20.897   9.701  25.739  1.00  0.00     0.198 C 
ATOM    556  O4'   G A  26     -18.871   9.442  26.854  1.00  0.00    -0.353 OA
ATOM    557  C2'   G A  26     -20.148  11.021  25.612  1.00  0.00     0.199 C 
ATOM    558  O3'   G A  26     -22.305   9.883  25.864  1.00  0.00    -0.279 OA
ATOM    559  O2'   G A  26     -20.644  11.981  26.526  1.00  0.00    -0.388 OA
ATOM    560  C1'   G A  26     -18.743  10.607  26.053  1.00  0.00     0.262 C 
ATOM    561 'HO2   G A  26     -21.538  11.716  26.743  1.00  0.00     0.210 HD
ATOM    562  N9    G A  26     -17.851  10.310  24.936  1.00  0.00    -0.293 N 
ATOM    563  C4    G A  26     -17.225  11.228  24.129  1.00  0.00     0.187 A 
ATOM    564  C8    G A  26     -17.473   9.072  24.479  1.00  0.00     0.214 A 
ATOM    565  N3    G A  26     -17.325  12.570  24.229  1.00  0.00    -0.044 NA
ATOM    566  C5    G A  26     -16.497  10.485  23.224  1.00  0.00     0.173 A 
ATOM    567  C2    G A  26     -16.606  13.188  23.310  1.00  0.00     0.703 A 
ATOM    568  N2    G A  26     -16.592  14.522  23.267  1.00  0.00    -0.233 N 
ATOM    569  N1    G A  26     -15.848  12.544  22.365  1.00  0.00    -0.153 N 
ATOM    570  H21   G A  26     -17.133  15.044  23.941  1.00  0.00     0.174 HD
ATOM    571  H22   G A  26     -16.046  15.008  22.569  1.00  0.00     0.174 HD
ATOM    572  H1    G A  26     -15.336  13.114  21.709  1.00  0.00     0.187 HD
ATOM    573  C6    G A  26     -15.731  11.164  22.241  1.00  0.00     0.292 A 
ATOM    574  O6    G A  26     -15.021  10.685  21.350  1.00  0.00    -0.265 OA
ATOM    575  N7    G A  26     -16.663   9.125  23.458  1.00  0.00    -0.234 NA
ATOM    576  P     A A  27     -23.209  10.046  24.544  1.00  0.00     0.408 P 
ATOM    577  O5'   A A  27     -22.686  11.396  23.878  1.00  0.00    -0.287 OA
ATOM    578  OP2   A A  27     -22.902   8.923  23.622  1.00  0.00    -0.624 OA
ATOM    579  OP1   A A  27     -24.608  10.263  24.994  1.00  0.00    -0.624 OA
ATOM    580  C5'   A A  27     -22.929  12.660  24.495  1.00  0.00     0.216 C 
ATOM    581  C4'   A A  27     -22.409  13.781  23.623  1.00  0.00     0.180 C 
ATOM    582  C3'   A A  27     -22.824  13.739  22.160  1.00  0.00     0.198 C 
ATOM    583  O4'   A A  27     -20.960  13.715  23.558  1.00  0.00    -0.353 OA
ATOM    584  O3'   A A  27     -24.144  14.237  21.960  1.00  0.00    -0.279 OA
ATOM    585  C2'   A A  27     -21.764  14.619  21.509  1.00  0.00     0.199 C 
ATOM    586  P     G A  28     -24.945  13.856  20.619  1.00  0.00     0.408 P 
ATOM    587  OP2   G A  28     -24.906  12.381  20.451  1.00  0.00    -0.624 OA
ATOM    588  OP1   G A  28     -26.256  14.553  20.674  1.00  0.00    -0.624 OA
ATOM    589  O5'   G A  28     -24.081  14.514  19.451  1.00  0.00    -0.287 OA
ATOM    590  C5'   G A  28     -24.240  15.889  19.107  1.00  0.00     0.216 C 
ATOM    591  C4'   G A  28     -23.093  16.352  18.237  1.00  0.00     0.180 C 
ATOM    592  C3'   G A  28     -23.190  16.000  16.762  1.00  0.00     0.198 C 
ATOM    593  O4'   G A  28     -21.866  15.698  18.647  1.00  0.00    -0.353 OA
ATOM    594  C2'   G A  28     -21.740  16.127  16.306  1.00  0.00     0.199 C 
ATOM    595  C1'   G A  28     -20.986  15.619  17.538  1.00  0.00     0.262 C 
ATOM    596  N9    G A  28     -20.520  14.241  17.409  1.00  0.00    -0.293 N 
ATOM    597  C8    G A  28     -20.933  13.150  18.133  1.00  0.00     0.214 A 
ATOM    598  C4    G A  28     -19.569  13.782  16.528  1.00  0.00     0.187 A 
ATOM    599  N7    G A  28     -20.326  12.045  17.793  1.00  0.00    -0.234 NA
ATOM    600  C5    G A  28     -19.460  12.431  16.778  1.00  0.00     0.173 A 
ATOM    601  C6    G A  28     -18.539  11.667  16.014  1.00  0.00     0.292 A 
ATOM    602  O6    G A  28     -18.292  10.458  16.084  1.00  0.00    -0.265 OA
ATOM    603  N1    G A  28     -17.865  12.456  15.088  1.00  0.00    -0.153 N 
ATOM    604  C2    G A  28     -18.051  13.803  14.918  1.00  0.00     0.703 A 
ATOM    605  H1    G A  28     -17.189  11.998  14.497  1.00  0.00     0.187 HD
ATOM    606  N3    G A  28     -18.901  14.528  15.623  1.00  0.00    -0.044 NA
ATOM    607  O2'   A A  27     -22.033  15.992  21.732  1.00  0.00    -0.388 OA
ATOM    608  C1'   A A  27     -20.521  14.229  22.311  1.00  0.00     0.262 C 
ATOM    609 'HO2   A A  27     -22.951  16.132  21.504  1.00  0.00     0.210 HD
ATOM    610  N9    A A  27     -19.701  13.213  21.651  1.00  0.00    -0.294 N 
ATOM    611  C4    A A  27     -18.801  13.435  20.638  1.00  0.00     0.167 A 
ATOM    612  C8    A A  27     -19.663  11.863  21.897  1.00  0.00     0.214 A 
ATOM    613  N3    A A  27     -18.498  14.610  20.059  1.00  0.00    -0.222 NA
ATOM    614  C5    A A  27     -18.266  12.197  20.330  1.00  0.00     0.149 A 
ATOM    615  C2    A A  27     -17.580  14.444  19.111  1.00  0.00     0.237 A 
ATOM    616  N1    A A  27     -16.976  13.318  18.704  1.00  0.00    -0.222 NA
ATOM    617  C6    A A  27     -17.303  12.155  19.306  1.00  0.00     0.155 A 
ATOM    618  N6    A A  27     -16.701  11.037  18.901  1.00  0.00    -0.382 N 
ATOM    619  H62   A A  27     -16.018  11.068  18.157  1.00  0.00     0.157 HD
ATOM    620  H61   A A  27     -16.932  10.156  19.338  1.00  0.00     0.157 HD
ATOM    621  N7    A A  27     -18.819  11.211  21.135  1.00  0.00    -0.236 NA
BRANCH 592 622
ATOM    622  O3'   G A  28     -24.062  16.884  16.062  1.00  0.00    -0.279 OA
BRANCH 622 623
ATOM    623  P     A A  29     -25.348  16.297  15.293  1.00  0.00     0.408 P 
ATOM    624  OP2   A A  29     -24.946  15.939  13.909  1.00  0.00    -0.624 OA
ATOM    625  OP1   A A  29     -25.952  15.264  16.172  1.00  0.00    -0.624 OA
BRANCH 623 626
ATOM    626  O5'   A A  29     -26.352  17.534  15.220  1.00  0.00    -0.287 OA
BRANCH 626 627
ATOM    627  C5'   A A  29     -26.059  18.757  15.894  1.00  0.00     0.216 C 
BRANCH 627 628
ATOM    628  C4'   A A  29     -26.322  18.614  17.376  1.00  0.00     0.180 C 
ATOM    629  C3'   A A  29     -27.526  19.375  17.912  1.00  0.00     0.198 C 
ATOM    630  O3'   A A  29     -28.741  18.661  17.700  1.00  0.00    -0.279 OA
ATOM    631  C2'   A A  29     -27.185  19.518  19.391  1.00  0.00     0.199 C 
ATOM    632  P     G A  30     -30.144  19.448  17.725  1.00  0.00     0.408 P 
ATOM    633  OP1   G A  30     -31.214  18.449  17.470  1.00  0.00    -0.624 OA
ATOM    634  O5'   G A  30     -30.283  19.948  19.232  1.00  0.00    -0.287 OA
ATOM    635  OP2   G A  30     -30.030  20.639  16.845  1.00  0.00    -0.624 OA
ATOM    636  C5'   G A  30     -30.389  19.017  20.309  1.00  0.00     0.216 C 
ATOM    637  C4'   G A  30     -30.772  19.731  21.584  1.00  0.00     0.180 C 
ATOM    638  C3'   G A  30     -32.072  20.535  21.515  1.00  0.00     0.198 C 
ATOM    639  O4'   G A  30     -29.727  20.691  21.911  1.00  0.00    -0.353 OA
ATOM    640  O3'   G A  30     -32.838  20.390  22.709  1.00  0.00    -0.279 OA
ATOM    641  C2'   G A  30     -31.591  21.969  21.314  1.00  0.00     0.199 C 
ATOM    642  P     G A  31     -33.725  19.066  22.939  1.00  0.00     0.408 P 
ATOM    643  OP1   G A  31     -33.889  18.397  21.622  1.00  0.00    -0.624 OA
ATOM    644  OP2   G A  31     -34.929  19.453  23.717  1.00  0.00    -0.624 OA
ATOM    645  O5'   G A  31     -32.808  18.135  23.851  1.00  0.00    -0.287 OA
ATOM    646  C5'   G A  31     -32.828  18.238  25.275  1.00  0.00     0.216 C 
ATOM    647  C4'   G A  31     -32.883  16.862  25.896  1.00  0.00     0.180 C 
ATOM    648  C3'   G A  31     -33.210  16.826  27.383  1.00  0.00     0.198 C 
ATOM    649  O4'   G A  31     -31.569  16.247  25.798  1.00  0.00    -0.353 OA
ATOM    650  O3'   G A  31     -34.615  16.842  27.616  1.00  0.00    -0.279 OA
ATOM    651  C2'   G A  31     -32.563  15.521  27.829  1.00  0.00     0.199 C 
ATOM    652  P     G A  32     -35.183  17.294  29.052  1.00  0.00     0.408 P 
ATOM    653  OP1   G A  32     -36.660  17.158  29.006  1.00  0.00    -0.624 OA
ATOM    654  O5'   G A  32     -34.615  16.193  30.056  1.00  0.00    -0.287 OA
ATOM    655  OP2   G A  32     -34.576  18.603  29.403  1.00  0.00    -0.624 OA
ATOM    656  C5'   G A  32     -35.041  14.834  29.976  1.00  0.00     0.216 C 
ATOM    657  C4'   G A  32     -34.779  14.125  31.286  1.00  0.00     0.180 C 
ATOM    658  C3'   G A  32     -34.948  14.974  32.536  1.00  0.00     0.198 C 
ATOM    659  O4'   G A  32     -33.391  13.704  31.327  1.00  0.00    -0.353 OA
ATOM    660  C2'   G A  32     -34.063  14.253  33.547  1.00  0.00     0.199 C 
ATOM    661  O3'   G A  32     -36.313  15.035  32.942  1.00  0.00    -0.279 OA
ATOM    662  O2'   G A  32     -34.713  13.114  34.081  1.00  0.00    -0.388 OA
ATOM    663  C1'   G A  32     -32.910  13.781  32.658  1.00  0.00     0.262 C 
ATOM    664 'HO2   G A  32     -35.275  13.422  34.794  1.00  0.00     0.210 HD
ATOM    665  N9    G A  32     -31.752  14.669  32.677  1.00  0.00    -0.293 N 
ATOM    666  C4    G A  32     -30.733  14.664  33.600  1.00  0.00     0.187 A 
ATOM    667  C8    G A  32     -31.459  15.670  31.784  1.00  0.00     0.214 A 
ATOM    668  N3    G A  32     -30.626  13.833  34.658  1.00  0.00    -0.044 NA
ATOM    669  C5    G A  32     -29.876  15.668  33.204  1.00  0.00     0.173 A 
ATOM    670  C2    G A  32     -29.534  14.071  35.362  1.00  0.00     0.703 A 
ATOM    671  N2    G A  32     -29.275  13.340  36.449  1.00  0.00    -0.233 N 
ATOM    672  N1    G A  32     -28.618  15.044  35.054  1.00  0.00    -0.153 N 
ATOM    673  H21   G A  32     -29.920  12.611  36.718  1.00  0.00     0.174 HD
ATOM    674  H22   G A  32     -28.446  13.512  36.998  1.00  0.00     0.174 HD
ATOM    675  C6    G A  32     -28.706  15.909  33.971  1.00  0.00     0.292 A 
ATOM    676  H1    G A  32     -27.815  15.145  35.657  1.00  0.00     0.187 HD
ATOM    677  O6    G A  32     -27.821  16.750  33.783  1.00  0.00    -0.265 OA
ATOM    678  N7    G A  32     -30.347  16.295  32.058  1.00  0.00    -0.234 NA
ATOM    679  P     T A  33     -36.764  16.082  34.075  1.00  0.00     0.408 P 
ATOM    680  OP1   T A  33     -38.247  16.154  34.044  1.00  0.00    -0.624 OA
ATOM    681  O5'   T A  33     -36.334  15.381  35.441  1.00  0.00    -0.287 OA
ATOM    682  OP2   T A  33     -35.968  17.326  33.913  1.00  0.00    -0.624 OA
ATOM    683  C5'   T A  33     -35.568  16.079  36.420  1.00  0.00     0.216 C 
ATOM    684  C4'   T A  33     -34.928  15.099  37.373  1.00  0.00     0.180 C 
ATOM    685  C3'   T A  33     -34.530  15.674  38.728  1.00  0.00     0.198 C 
ATOM    686  O4'   T A  33     -33.684  14.623  36.788  1.00  0.00    -0.353 OA
ATOM    687  O3'   T A  33     -35.605  15.604  39.661  1.00  0.00    -0.279 OA
ATOM    688  C2'   T A  33     -33.354  14.793  39.128  1.00  0.00     0.199 C 
ATOM    689  P     T A  34     -36.207  16.956  40.294  1.00  0.00     0.408 P 
ATOM    690  OP1   T A  34     -37.621  16.682  40.656  1.00  0.00    -0.624 OA
ATOM    691  O5'   T A  34     -35.380  17.152  41.642  1.00  0.00    -0.287 OA
ATOM    692  OP2   T A  34     -35.889  18.090  39.388  1.00  0.00    -0.624 OA
ATOM    693  C5'   T A  34     -35.482  16.212  42.710  1.00  0.00     0.216 C 
ATOM    694  C4'   T A  34     -34.169  16.121  43.453  1.00  0.00     0.180 C 
ATOM    695  O4'   T A  34     -33.110  15.817  42.506  1.00  0.00    -0.353 OA
ATOM    696  C3'   T A  34     -33.717  17.405  44.138  1.00  0.00     0.198 C 
ATOM    697  C1'   T A  34     -31.943  16.547  42.841  1.00  0.00     0.264 C 
ATOM    698  C2'   T A  34     -32.203  17.240  44.178  1.00  0.00     0.199 C 
ATOM    699  N1    T A  34     -31.646  17.477  41.741  1.00  0.00    -0.280 N 
ATOM    700  C6    T A  34     -32.597  17.795  40.799  1.00  0.00     0.104 A 
ATOM    701  C2    T A  34     -30.378  18.026  41.685  1.00  0.00     0.331 A 
ATOM    702  C5    T A  34     -32.352  18.637  39.790  1.00  0.00     0.092 A 
ATOM    703  C4    T A  34     -31.065  19.246  39.665  1.00  0.00     0.250 A 
ATOM    704  O4    T A  34     -30.723  20.036  38.787  1.00  0.00    -0.268 OA
ATOM    705  N3    T A  34     -30.164  18.886  40.639  1.00  0.00    -0.275 N 
ATOM    706  H3    T A  34     -29.247  19.302  40.582  1.00  0.00     0.173 HD
ATOM    707  O2    T A  34     -29.509  17.771  42.499  1.00  0.00    -0.246 OA
ATOM    708  C1'   T A  33     -32.671  14.586  37.777  1.00  0.00     0.264 C 
ATOM    709  O2'   T A  33     -33.794  13.539  39.613  1.00  0.00    -0.388 OA
ATOM    710  N1    T A  33     -31.668  15.611  37.453  1.00  0.00    -0.280 N 
ATOM    711  C6    T A  33     -31.823  16.447  36.369  1.00  0.00     0.104 A 
ATOM    712  C2    T A  33     -30.561  15.712  38.276  1.00  0.00     0.331 A 
ATOM    713  C5    T A  33     -30.926  17.387  36.057  1.00  0.00     0.092 A 
ATOM    714  C4    T A  33     -29.756  17.553  36.860  1.00  0.00     0.250 A 
ATOM    715  O4    T A  33     -28.857  18.372  36.670  1.00  0.00    -0.268 OA
ATOM    716  N3    T A  33     -29.665  16.688  37.925  1.00  0.00    -0.275 N 
ATOM    717  H3    T A  33     -28.854  16.786  38.517  1.00  0.00     0.173 HD
ATOM    718  O2    T A  33     -30.385  14.993  39.241  1.00  0.00    -0.246 OA
ATOM    719 'HO2   T A  33     -34.588  13.703  40.122  1.00  0.00     0.210 HD
ATOM    720  C1'   G A  31     -31.292  15.517  26.982  1.00  0.00     0.262 C 
ATOM    721  O2'   G A  31     -33.357  14.407  27.463  1.00  0.00    -0.388 OA
ATOM    722  N9    G A  31     -30.145  16.131  27.644  1.00  0.00    -0.293 N 
ATOM    723  C4    G A  31     -29.452  15.623  28.718  1.00  0.00     0.187 A 
ATOM    724  C8    G A  31     -29.544  17.326  27.327  1.00  0.00     0.214 A 
ATOM    725  N3    G A  31     -29.711  14.460  29.350  1.00  0.00    -0.044 NA
ATOM    726  C5    G A  31     -28.466  16.549  28.987  1.00  0.00     0.173 A 
ATOM    727  C2    G A  31     -28.872  14.244  30.347  1.00  0.00     0.703 A 
ATOM    728  N2    G A  31     -28.990  13.135  31.083  1.00  0.00    -0.233 N 
ATOM    729  N1    G A  31     -27.858  15.098  30.697  1.00  0.00    -0.153 N 
ATOM    730  H21   G A  31     -29.722  12.477  30.863  1.00  0.00     0.174 HD
ATOM    731  H22   G A  31     -28.358  12.958  31.848  1.00  0.00     0.174 HD
ATOM    732  C6    G A  31     -27.571  16.300  30.061  1.00  0.00     0.292 A 
ATOM    733  H1    G A  31     -27.271  14.845  31.475  1.00  0.00     0.187 HD
ATOM    734  O6    G A  31     -26.629  16.996  30.458  1.00  0.00    -0.265 OA
ATOM    735  N7    G A  31     -28.536  17.617  28.102  1.00  0.00    -0.234 NA
ATOM    736 'HO2   G A  31     -34.245  14.739  27.326  1.00  0.00     0.210 HD
ATOM    737  O2'   G A  30     -32.491  22.897  21.892  1.00  0.00    -0.388 OA
ATOM    738  C1'   G A  30     -30.304  21.957  22.129  1.00  0.00     0.262 C 
ATOM    739 'HO2   G A  30     -32.953  22.433  22.590  1.00  0.00     0.210 HD
ATOM    740  N9    G A  30     -29.336  22.982  21.751  1.00  0.00    -0.293 N 
ATOM    741  C8    G A  30     -28.724  23.139  20.531  1.00  0.00     0.214 A 
ATOM    742  C4    G A  30     -28.856  23.986  22.556  1.00  0.00     0.187 A 
ATOM    743  N7    G A  30     -27.904  24.153  20.494  1.00  0.00    -0.234 NA
ATOM    744  C5    G A  30     -27.977  24.698  21.769  1.00  0.00     0.173 A 
ATOM    745  C6    G A  30     -27.311  25.819  22.331  1.00  0.00     0.292 A 
ATOM    746  N1    G A  30     -27.679  26.019  23.657  1.00  0.00    -0.153 N 
ATOM    747  O6    G A  30     -26.497  26.580  21.799  1.00  0.00    -0.265 OA
ATOM    748  C2    G A  30     -28.569  25.244  24.353  1.00  0.00     0.703 A 
ATOM    749  H1    G A  30     -27.254  26.796  24.139  1.00  0.00     0.187 HD
ATOM    750  N2    G A  30     -28.791  25.596  25.622  1.00  0.00    -0.233 N 
ATOM    751  N3    G A  30     -29.196  24.200  23.844  1.00  0.00    -0.044 NA
ATOM    752  H21   G A  30     -29.439  25.055  26.176  1.00  0.00     0.174 HD
ATOM    753  H22   G A  30     -28.317  26.390  26.026  1.00  0.00     0.174 HD
ATOM    754  O2'   A A  29     -27.446  18.317  20.093  1.00  0.00    -0.388 OA
ATOM    755  C1'   A A  29     -25.672  19.730  19.332  1.00  0.00     0.262 C 
ATOM    756 'HO2   A A  29     -28.008  17.784  19.528  1.00  0.00     0.210 HD
ATOM    757  O4'   A A  29     -25.204  19.170  18.116  1.00  0.00    -0.353 OA
BRANCH 698 758
ATOM    758  O2'   T A  34     -31.809  16.372  45.225  1.00  0.00    -0.388 OA
ATOM    759 'HO2   T A  34     -31.725  15.498  44.843  1.00  0.00     0.210 HD
ENDBRANCH 698 758
BRANCH 696 760
ATOM    760  O3'   T A  34     -34.286  17.530  45.440  1.00  0.00    -0.279 OA
BRANCH 760 761
ATOM    761  P     C A  35     -34.890  16.236  46.183  1.00  0.00     0.408 P 
ATOM    762  OP1   C A  35     -36.296  16.087  45.729  1.00  0.00    -0.624 OA
ATOM    763  OP2   C A  35     -34.595  16.322  47.636  1.00  0.00    -0.624 OA
BRANCH 761 764
ATOM    764  O5'   C A  35     -34.048  15.021  45.584  1.00  0.00    -0.287 OA
BRANCH 764 765
ATOM    765  C5'   C A  35     -34.197  13.698  46.096  1.00  0.00     0.216 C 
BRANCH 765 766
ATOM    766  C4'   C A  35     -34.735  12.782  45.022  1.00  0.00     0.180 C 
ATOM    767  O4'   C A  35     -34.261  13.249  43.729  1.00  0.00    -0.353 OA
ATOM    768  C1'   C A  35     -33.872  12.144  42.930  1.00  0.00     0.264 C 
ATOM    769  N1    C A  35     -32.417  12.215  42.713  1.00  0.00    -0.278 N 
ATOM    770  C2'   C A  35     -34.325  10.878  43.656  1.00  0.00     0.199 C 
ATOM    771  C6    C A  35     -31.608  12.877  43.595  1.00  0.00     0.102 A 
ATOM    772  C2    C A  35     -31.872  11.595  41.586  1.00  0.00     0.352 A 
ATOM    773  C5    C A  35     -30.286  12.945  43.402  1.00  0.00     0.067 A 
ATOM    774  C4    C A  35     -29.757  12.304  42.244  1.00  0.00     0.128 A 
ATOM    775  N4    C A  35     -28.449  12.339  41.995  1.00  0.00    -0.384 N 
ATOM    776  N3    C A  35     -30.539  11.657  41.378  1.00  0.00    -0.177 NA
ATOM    777  H41   C A  35     -27.823  12.818  42.625  1.00  0.00     0.157 HD
ATOM    778  H42   C A  35     -28.090  11.881  41.170  1.00  0.00     0.157 HD
ATOM    779  O2    C A  35     -32.627  11.001  40.803  1.00  0.00    -0.244 OA
ATOM    780  C3'   C A  35     -34.271  11.333  45.109  1.00  0.00     0.198 C 
ATOM    781  O2'   C A  35     -35.651  10.578  43.261  1.00  0.00    -0.388 OA
ATOM    782  O3'   C A  35     -35.122  10.559  45.950  1.00  0.00    -0.279 OA
ATOM    783  P     A A  36     -34.494   9.716  47.167  1.00  0.00     0.408 P 
ATOM    784  OP2   A A  36     -33.927  10.675  48.149  1.00  0.00    -0.624 OA
ATOM    785  O5'   A A  36     -33.287   8.914  46.501  1.00  0.00    -0.287 OA
ATOM    786  OP1   A A  36     -35.526   8.742  47.605  1.00  0.00    -0.624 OA
ATOM    787  C5'   A A  36     -33.235   7.487  46.538  1.00  0.00     0.216 C 
ATOM    788  C4'   A A  36     -33.788   6.908  45.254  1.00  0.00     0.180 C 
ATOM    789  C3'   A A  36     -32.990   5.742  44.675  1.00  0.00     0.198 C 
ATOM    790  O4'   A A  36     -33.772   7.942  44.229  1.00  0.00    -0.353 OA
ATOM    791  O3'   A A  36     -33.510   4.487  45.106  1.00  0.00    -0.279 OA
ATOM    792  C2'   A A  36     -33.136   5.939  43.172  1.00  0.00     0.199 C 
ATOM    793  P     A A  37     -32.623   3.534  46.051  1.00  0.00     0.408 P 
ATOM    794  OP2   A A  37     -31.763   4.387  46.910  1.00  0.00    -0.624 OA
ATOM    795  OP1   A A  37     -33.552   2.562  46.682  1.00  0.00    -0.624 OA
ATOM    796  O5'   A A  37     -31.686   2.743  45.033  1.00  0.00    -0.287 OA
ATOM    797  O2'   A A  36     -34.390   5.472  42.711  1.00  0.00    -0.388 OA
ATOM    798  C1'   A A  36     -33.112   7.460  43.076  1.00  0.00     0.262 C 
ATOM    799 'HO2   A A  36     -34.748   4.922  43.409  1.00  0.00     0.210 HD
ATOM    800  N9    A A  36     -31.768   8.034  43.041  1.00  0.00    -0.294 N 
ATOM    801  C8    A A  36     -31.249   9.014  43.852  1.00  0.00     0.214 A 
ATOM    802  C4    A A  36     -30.757   7.690  42.177  1.00  0.00     0.167 A 
ATOM    803  N7    A A  36     -30.004   9.321  43.579  1.00  0.00    -0.236 NA
ATOM    804  C5    A A  36     -29.680   8.487  42.519  1.00  0.00     0.149 A 
ATOM    805  C6    A A  36     -28.503   8.322  41.770  1.00  0.00     0.155 A 
ATOM    806  N6    A A  36     -27.385   9.018  41.985  1.00  0.00    -0.382 N 
ATOM    807  N1    A A  36     -28.510   7.405  40.780  1.00  0.00    -0.222 NA
ATOM    808  H62   A A  36     -26.573   8.850  41.410  1.00  0.00     0.157 HD
ATOM    809  H61   A A  36     -27.358   9.709  42.722  1.00  0.00     0.157 HD
ATOM    810  C2    A A  36     -29.631   6.706  40.563  1.00  0.00     0.237 A 
ATOM    811  N3    A A  36     -30.799   6.769  41.198  1.00  0.00    -0.222 NA
ATOM    812 'HO2   C A  35     -35.963   9.889  43.849  1.00  0.00     0.210 HD
BRANCH 796 813
ATOM    813  C5'   A A  37     -32.096   1.492  44.479  1.00  0.00     0.216 C 
BRANCH 813 814
ATOM    814  C4'   A A  37     -30.924   0.805  43.814  1.00  0.00     0.180 C 
ATOM    815  O4'   A A  37     -30.469   1.608  42.694  1.00  0.00    -0.353 OA
ATOM    816  C1'   A A  37     -29.069   1.454  42.538  1.00  0.00     0.262 C 
ATOM    817  C2'   A A  37     -28.575   0.505  43.633  1.00  0.00     0.199 C 
ATOM    818  C3'   A A  37     -29.681   0.641  44.675  1.00  0.00     0.198 C 
BRANCH 816 819
ATOM    819  N9    A A  37     -28.449   2.778  42.594  1.00  0.00    -0.294 N 
ATOM    820  C8    A A  37     -28.954   3.928  43.147  1.00  0.00     0.214 A 
ATOM    821  N7    A A  37     -28.152   4.960  43.044  1.00  0.00    -0.236 NA
ATOM    822  C5    A A  37     -27.044   4.454  42.376  1.00  0.00     0.149 A 
ATOM    823  C6    A A  37     -25.838   5.046  41.961  1.00  0.00     0.155 A 
ATOM    824  C4    A A  37     -27.215   3.112  42.093  1.00  0.00     0.167 A 
ATOM    825  N6    A A  37     -25.531   6.326  42.166  1.00  0.00    -0.382 N 
ATOM    826  N1    A A  37     -24.944   4.263  41.320  1.00  0.00    -0.222 NA
ATOM    827  H61   A A  37     -26.185   6.928  42.645  1.00  0.00     0.157 HD
ATOM    828  H62   A A  37     -24.644   6.683  41.846  1.00  0.00     0.157 HD
ATOM    829  C2    A A  37     -25.250   2.975  41.115  1.00  0.00     0.237 A 
ATOM    830  N3    A A  37     -26.347   2.306  41.459  1.00  0.00    -0.222 NA
ENDBRANCH 816 819
BRANCH 817 831
ATOM    831  O2'   A A  37     -28.528  -0.807  43.101  1.00  0.00    -0.388 OA
ATOM    832 'HO2   A A  37     -29.352  -1.237  43.336  1.00  0.00     0.210 HD
ENDBRANCH 817 831
BRANCH 818 833
ATOM    833  O3'   A A  37     -29.783  -0.501  45.523  1.00  0.00    -0.279 OA
BRANCH 833 834
ATOM    834  P     A A  38     -29.912  -0.309  47.115  1.00  0.00     0.408 P 
ATOM    835  OP1   A A  38     -31.137  -1.025  47.550  1.00  0.00    -0.624 OA
ATOM    836  OP2   A A  38     -29.760   1.137  47.420  1.00  0.00    -0.624 OA
BRANCH 834 837
ATOM    837  O5'   A A  38     -28.648  -1.081  47.707  1.00  0.00    -0.287 OA
BRANCH 837 838
ATOM    838  C5'   A A  38     -27.709  -0.415  48.553  1.00  0.00     0.216 C 
BRANCH 838 839
ATOM    839  C4'   A A  38     -26.396  -1.165  48.567  1.00  0.00     0.180 C 
ATOM    840  C3'   A A  38     -25.211  -0.382  49.129  1.00  0.00     0.198 C 
ATOM    841  C2'   A A  38     -24.021  -0.963  48.370  1.00  0.00     0.199 C 
ATOM    842  O2'   A A  38     -23.580  -2.193  48.911  1.00  0.00    -0.388 OA
ATOM    843  C1'   A A  38     -24.644  -1.237  47.002  1.00  0.00     0.262 C 
ATOM    844 'HO2   A A  38     -24.296  -2.825  48.823  1.00  0.00     0.210 HD
ATOM    845  O4'   A A  38     -26.025  -1.472  47.195  1.00  0.00    -0.353 OA
BRANCH 840 846
ATOM    846  O3'   A A  38     -25.052  -0.492  50.553  1.00  0.00    -0.279 OA
ATOM    847  P     T A  39     -23.861   0.286  51.318  1.00  0.00     0.408 P 
ATOM    848  OP2   T A  39     -22.793  -0.706  51.604  1.00  0.00    -0.624 OA
ATOM    849  OP1   T A  39     -23.519   1.539  50.600  1.00  0.00    -0.624 OA
ATOM    850  O5'   T A  39     -24.518   0.710  52.706  1.00  0.00    -0.287 OA
ATOM    851  C5'   T A  39     -25.931   0.883  52.830  1.00  0.00     0.216 C 
ATOM    852  C4'   T A  39     -26.236   2.044  53.747  1.00  0.00     0.180 C 
ATOM    853  O4'   T A  39     -26.015   1.620  55.124  1.00  0.00    -0.353 OA
ATOM    854  C3'   T A  39     -25.361   3.281  53.553  1.00  0.00     0.198 C 
ATOM    855  C1'   T A  39     -25.046   2.450  55.727  1.00  0.00     0.264 C 
ATOM    856  C2'   T A  39     -24.256   3.081  54.585  1.00  0.00     0.199 C 
ATOM    857  N1    T A  39     -24.239   1.642  56.655  1.00  0.00    -0.280 N 
ATOM    858  O2'   T A  39     -23.727   4.317  55.030  1.00  0.00    -0.388 OA
ATOM    859 'HO2   T A  39     -23.678   4.892  54.266  1.00  0.00     0.210 HD
ATOM    860  C2    T A  39     -23.808   0.392  56.238  1.00  0.00     0.331 A 
ATOM    861  C6    T A  39     -23.922   2.118  57.907  1.00  0.00     0.104 A 
ATOM    862  N3    T A  39     -23.066  -0.302  57.160  1.00  0.00    -0.275 N 
ATOM    863  O2    T A  39     -24.059  -0.069  55.141  1.00  0.00    -0.246 OA
ATOM    864  H3    T A  39     -22.743  -1.214  56.877  1.00  0.00     0.173 HD
ATOM    865  C4    T A  39     -22.716   0.112  58.423  1.00  0.00     0.250 A 
ATOM    866  O4    T A  39     -22.049  -0.634  59.140  1.00  0.00    -0.268 OA
ATOM    867  C5    T A  39     -23.195   1.412  58.777  1.00  0.00     0.092 A 
ATOM    868  O3'   T A  39     -26.111   4.473  53.778  1.00  0.00    -0.279 OA
ATOM    869  P     C A  40     -25.748   5.817  52.972  1.00  0.00     0.408 P 
ATOM    870  OP2   C A  40     -26.966   6.276  52.256  1.00  0.00    -0.624 OA
ATOM    871  O5'   C A  40     -24.678   5.358  51.882  1.00  0.00    -0.287 OA
ATOM    872  OP1   C A  40     -25.067   6.732  53.922  1.00  0.00    -0.624 OA
ATOM    873  C5'   C A  40     -24.272   6.244  50.838  1.00  0.00     0.216 C 
ATOM    874  C4'   C A  40     -23.276   5.562  49.929  1.00  0.00     0.180 C 
ATOM    875  O4'   C A  40     -23.862   4.316  49.455  1.00  0.00    -0.353 OA
ATOM    876  C3'   C A  40     -22.912   6.357  48.677  1.00  0.00     0.198 C 
ATOM    877  C1'   C A  40     -23.864   4.297  48.042  1.00  0.00     0.264 C 
ATOM    878  N1    C A  40     -25.225   4.622  47.578  1.00  0.00    -0.278 N 
ATOM    879  C2'   C A  40     -22.786   5.282  47.601  1.00  0.00     0.199 C 
ATOM    880  C6    C A  40     -26.272   4.651  48.457  1.00  0.00     0.102 A 
ATOM    881  C2    C A  40     -25.434   4.900  46.223  1.00  0.00     0.352 A 
ATOM    882  C5    C A  40     -27.513   4.945  48.045  1.00  0.00     0.067 A 
ATOM    883  C4    C A  40     -27.696   5.223  46.660  1.00  0.00     0.128 A 
ATOM    884  N3    C A  40     -26.682   5.199  45.794  1.00  0.00    -0.177 NA
ATOM    885  N4    C A  40     -28.906   5.522  46.190  1.00  0.00    -0.384 N 
ATOM    886  H41   C A  40     -29.701   5.553  46.813  1.00  0.00     0.157 HD
ATOM    887  H42   C A  40     -29.023   5.717  45.206  1.00  0.00     0.157 HD
ATOM    888  O2    C A  40     -24.470   4.866  45.445  1.00  0.00    -0.244 OA
ATOM    889  O2'   C A  40     -21.527   4.637  47.663  1.00  0.00    -0.388 OA
ATOM    890 'HO2   C A  40     -20.961   5.186  48.205  1.00  0.00     0.210 HD
ATOM    891  O3'   C A  40     -21.697   7.082  48.856  1.00  0.00    -0.279 OA
ATOM    892  P     C A  41     -21.734   8.685  48.977  1.00  0.00     0.408 P 
ATOM    893  O5'   C A  41     -22.377   9.162  47.599  1.00  0.00    -0.287 OA
ATOM    894  OP2   C A  41     -22.670   9.048  50.071  1.00  0.00    -0.624 OA
ATOM    895  OP1   C A  41     -20.328   9.163  49.025  1.00  0.00    -0.624 OA
ATOM    896  C5'   C A  41     -21.707   8.940  46.359  1.00  0.00     0.216 C 
ATOM    897  C4'   C A  41     -22.448   9.630  45.238  1.00  0.00     0.180 C 
ATOM    898  O4'   C A  41     -23.678   8.899  44.969  1.00  0.00    -0.353 OA
ATOM    899  C3'   C A  41     -22.901  11.054  45.534  1.00  0.00     0.198 C 
ATOM    900  C1'   C A  41     -24.738   9.813  44.748  1.00  0.00     0.264 C 
ATOM    901  N1    C A  41     -25.702   9.688  45.853  1.00  0.00    -0.278 N 
ATOM    902  C2'   C A  41     -24.119  11.204  44.631  1.00  0.00     0.199 C 
ATOM    903  C2    C A  41     -26.958  10.283  45.720  1.00  0.00     0.352 A 
ATOM    904  C6    C A  41     -25.379   9.006  46.994  1.00  0.00     0.102 A 
ATOM    905  N3    C A  41     -27.850  10.181  46.731  1.00  0.00    -0.177 NA
ATOM    906  O2    C A  41     -27.226  10.893  44.677  1.00  0.00    -0.244 OA
ATOM    907  C4    C A  41     -27.526   9.515  47.841  1.00  0.00     0.128 A 
ATOM    908  N4    C A  41     -28.437   9.442  48.809  1.00  0.00    -0.384 N 
ATOM    909  C5    C A  41     -26.252   8.896  48.005  1.00  0.00     0.067 A 
ATOM    910  H41   C A  41     -28.233   8.947  49.666  1.00  0.00     0.157 HD
ATOM    911  H42   C A  41     -29.339   9.882  48.683  1.00  0.00     0.157 HD
ATOM    912  O2'   C A  41     -23.737  11.422  43.286  1.00  0.00    -0.388 OA
ATOM    913 'HO2   C A  41     -22.824  11.709  43.300  1.00  0.00     0.210 HD
ATOM    914  O3'   C A  41     -21.882  12.004  45.236  1.00  0.00    -0.279 OA
ATOM    915  P     C A  42     -21.891  13.439  45.962  1.00  0.00     0.408 P 
ATOM    916  OP2   C A  42     -22.087  13.228  47.419  1.00  0.00    -0.624 OA
ATOM    917  O5'   C A  42     -23.191  14.155  45.384  1.00  0.00    -0.287 OA
ATOM    918  OP1   C A  42     -20.698  14.184  45.483  1.00  0.00    -0.624 OA
ATOM    919  C5'   C A  42     -23.295  14.486  44.000  1.00  0.00     0.216 C 
ATOM    920  C4'   C A  42     -24.546  15.296  43.748  1.00  0.00     0.180 C 
ATOM    921  O4'   C A  42     -25.706  14.431  43.889  1.00  0.00    -0.353 OA
ATOM    922  C3'   C A  42     -24.799  16.430  44.730  1.00  0.00     0.198 C 
ATOM    923  C1'   C A  42     -26.769  15.150  44.489  1.00  0.00     0.264 C 
ATOM    924  C2'   C A  42     -26.311  16.601  44.654  1.00  0.00     0.199 C 
BRANCH 923 925
ATOM    925  N1    C A  42     -27.117  14.492  45.759  1.00  0.00    -0.278 N 
ATOM    926  C6    C A  42     -26.165  13.842  46.496  1.00  0.00     0.102 A 
ATOM    927  C5    C A  42     -26.479  13.235  47.648  1.00  0.00     0.067 A 
ATOM    928  C4    C A  42     -27.839  13.297  48.071  1.00  0.00     0.128 A 
ATOM    929  N3    C A  42     -28.772  13.932  47.363  1.00  0.00    -0.177 NA
ATOM    930  N4    C A  42     -28.214  12.711  49.207  1.00  0.00    -0.384 N 
ATOM    931  C2    C A  42     -28.440  14.538  46.201  1.00  0.00     0.352 A 
ATOM    932  O2    C A  42     -29.284  15.135  45.516  1.00  0.00    -0.244 OA
ATOM    933  H42   C A  42     -29.181  12.761  49.495  1.00  0.00     0.157 HD
ATOM    934  H41   C A  42     -27.540  12.219  49.775  1.00  0.00     0.157 HD
ENDBRANCH 923 925
BRANCH 924 935
ATOM    935  O2'   C A  42     -26.685  17.327  43.497  1.00  0.00    -0.388 OA
ATOM    936 'HO2   C A  42     -26.008  17.989  43.359  1.00  0.00     0.210 HD
ENDBRANCH 924 935
BRANCH 922 937
ATOM    937  O3'   C A  42     -24.099  17.613  44.354  1.00  0.00    -0.279 OA
BRANCH 937 938
ATOM    938  P     G A  43     -23.014  18.253  45.354  1.00  0.00     0.408 P 
ATOM    939  OP2   G A  43     -22.637  17.227  46.360  1.00  0.00    -0.624 OA
ATOM    940  OP1   G A  43     -21.960  18.881  44.517  1.00  0.00    -0.624 OA
BRANCH 938 941
ATOM    941  O5'   G A  43     -23.810  19.414  46.101  1.00  0.00    -0.287 OA
BRANCH 941 942
ATOM    942  C5'   G A  43     -23.439  20.782  45.938  1.00  0.00     0.216 C 
BRANCH 942 943
ATOM    943  C4'   G A  43     -23.877  21.587  47.140  1.00  0.00     0.180 C 
ATOM    944  O4'   G A  43     -25.292  21.888  47.008  1.00  0.00    -0.353 OA
ATOM    945  C1'   G A  43     -25.915  21.828  48.278  1.00  0.00     0.262 C 
ATOM    946  C2'   G A  43     -24.833  21.556  49.322  1.00  0.00     0.199 C 
ATOM    947  C3'   G A  43     -23.756  20.878  48.481  1.00  0.00     0.198 C 
ATOM    948  O2'   G A  43     -24.377  22.795  49.835  1.00  0.00    -0.388 OA
ATOM    949  O3'   G A  43     -22.457  21.041  49.046  1.00  0.00    -0.279 OA
ATOM    950  P     G A  44     -21.397  19.832  48.987  1.00  0.00     0.408 P 
ATOM    951  OP2   G A  44     -22.104  18.563  49.300  1.00  0.00    -0.624 OA
ATOM    952  O5'   G A  44     -20.388  20.146  50.181  1.00  0.00    -0.287 OA
ATOM    953  OP1   G A  44     -20.648  19.960  47.711  1.00  0.00    -0.624 OA
ATOM    954  C5'   G A  44     -20.403  21.411  50.843  1.00  0.00     0.216 C 
ATOM    955  C4'   G A  44     -19.645  21.328  52.148  1.00  0.00     0.180 C 
ATOM    956  C3'   G A  44     -18.142  21.092  52.010  1.00  0.00     0.198 C 
ATOM    957  O4'   G A  44     -20.162  20.203  52.914  1.00  0.00    -0.353 OA
ATOM    958  C2'   G A  44     -17.987  19.599  52.281  1.00  0.00     0.199 C 
ATOM    959  C1'   G A  44     -19.096  19.366  53.301  1.00  0.00     0.262 C 
ATOM    960  N9    G A  44     -19.587  17.992  53.362  1.00  0.00    -0.293 N 
ATOM    961  C4    G A  44     -19.365  16.997  52.437  1.00  0.00     0.187 A 
ATOM    962  C8    G A  44     -20.357  17.433  54.352  1.00  0.00     0.214 A 
ATOM    963  N3    G A  44     -18.651  17.117  51.298  1.00  0.00    -0.044 NA
ATOM    964  C5    G A  44     -20.018  15.888  52.931  1.00  0.00     0.173 A 
ATOM    965  C2    G A  44     -18.615  15.986  50.619  1.00  0.00     0.703 A 
ATOM    966  N1    G A  44     -19.228  14.828  51.020  1.00  0.00    -0.153 N 
ATOM    967  N2    G A  44     -17.947  15.930  49.464  1.00  0.00    -0.233 N 
ATOM    968  C6    G A  44     -19.968  14.680  52.186  1.00  0.00     0.292 A 
ATOM    969  H1    G A  44     -19.137  14.018  50.427  1.00  0.00     0.187 HD
ATOM    970  O6    G A  44     -20.483  13.586  52.452  1.00  0.00    -0.265 OA
ATOM    971  H22   G A  44     -17.909  15.074  48.932  1.00  0.00     0.174 HD
ATOM    972  H21   G A  44     -17.478  16.760  49.128  1.00  0.00     0.174 HD
ATOM    973  N7    G A  44     -20.640  16.177  54.139  1.00  0.00    -0.234 NA
ATOM    974 'HO2   G A  43     -23.420  22.748  49.860  1.00  0.00     0.210 HD
BRANCH 945 975
ATOM    975  N9    G A  43     -26.953  20.802  48.232  1.00  0.00    -0.293 N 
ATOM    976  C4    G A  43     -27.540  20.285  47.103  1.00  0.00     0.187 A 
ATOM    977  N3    G A  43     -27.259  20.636  45.831  1.00  0.00    -0.044 NA
ATOM    978  C5    G A  43     -28.451  19.355  47.557  1.00  0.00     0.173 A 
ATOM    979  C2    G A  43     -27.989  19.963  44.961  1.00  0.00     0.703 A 
ATOM    980  N2    G A  43     -27.839  20.190  43.654  1.00  0.00    -0.233 N 
ATOM    981  N1    G A  43     -28.920  19.019  45.307  1.00  0.00    -0.153 N 
ATOM    982  H22   G A  43     -28.380  19.676  42.975  1.00  0.00     0.174 HD
ATOM    983  H21   G A  43     -27.163  20.880  43.354  1.00  0.00     0.174 HD
ATOM    984  C6    G A  43     -29.227  18.639  46.609  1.00  0.00     0.292 A 
ATOM    985  H1    G A  43     -29.426  18.561  44.564  1.00  0.00     0.187 HD
ATOM    986  O6    G A  43     -30.085  17.773  46.809  1.00  0.00    -0.265 OA
ATOM    987  N7    G A  43     -28.437  19.289  48.945  1.00  0.00    -0.234 NA
ATOM    988  C8    G A  43     -27.537  20.164  49.298  1.00  0.00     0.214 A 
ENDBRANCH 945 975
BRANCH 956 989
ATOM    989  O3'   G A  44     -17.404  21.884  52.938  1.00  0.00    -0.279 OA
BRANCH 989 990
ATOM    990  P     A A  45     -16.924  23.363  52.525  1.00  0.00     0.408 P 
ATOM    991  O5'   A A  45     -15.538  23.547  53.289  1.00  0.00    -0.287 OA
ATOM    992  C5'   A A  45     -14.820  24.780  53.226  1.00  0.00     0.216 C 
ATOM    993  C4'   A A  45     -13.331  24.519  53.232  1.00  0.00     0.180 C 
ATOM    994  O4'   A A  45     -12.804  24.878  54.541  1.00  0.00    -0.353 OA
ATOM    995  C3'   A A  45     -12.921  23.065  53.018  1.00  0.00     0.198 C 
ATOM    996  C1'   A A  45     -12.007  23.821  55.040  1.00  0.00     0.262 C 
ATOM    997  C2'   A A  45     -11.644  22.955  53.839  1.00  0.00     0.199 C 
ATOM    998  N9    A A  45     -12.769  23.117  56.070  1.00  0.00    -0.294 N 
ATOM    999  O2'   A A  45     -10.545  23.545  53.167  1.00  0.00    -0.388 OA
ATOM   1000 'HO2   A A  45     -10.789  23.611  52.242  1.00  0.00     0.210 HD
ATOM   1001  C4    A A  45     -12.276  22.227  56.995  1.00  0.00     0.167 A 
ATOM   1002  C8    A A  45     -14.117  23.201  56.315  1.00  0.00     0.214 A 
ATOM   1003  C5    A A  45     -13.365  21.824  57.746  1.00  0.00     0.149 A 
ATOM   1004  N3    A A  45     -11.002  21.826  57.143  1.00  0.00    -0.222 NA
ATOM   1005  N7    A A  45     -14.523  22.447  57.307  1.00  0.00    -0.236 NA
ATOM   1006  C6    A A  45     -13.121  20.899  58.775  1.00  0.00     0.155 A 
ATOM   1007  N6    A A  45     -14.073  20.416  59.576  1.00  0.00    -0.382 N 
ATOM   1008  N1    A A  45     -11.851  20.478  58.955  1.00  0.00    -0.222 NA
ATOM   1009  H62   A A  45     -13.846  19.752  60.303  1.00  0.00     0.157 HD
ATOM   1010  H61   A A  45     -15.028  20.718  59.453  1.00  0.00     0.157 HD
ATOM   1011  C2    A A  45     -10.897  20.956  58.146  1.00  0.00     0.237 A 
ATOM   1012  O3'   A A  45     -12.713  22.781  51.637  1.00  0.00    -0.279 OA
ATOM   1013  OP1   A A  45     -17.895  24.330  53.097  1.00  0.00    -0.624 OA
ATOM   1014  OP2   A A  45     -16.657  23.371  51.064  1.00  0.00    -0.624 OA
BRANCH 1012 1015
ATOM   1015  P     C A  46     -13.088  21.330  51.055  1.00  0.00     0.408 P 
ATOM   1016  OP1   C A  46     -14.122  20.746  51.947  1.00  0.00    -0.624 OA
ATOM   1017  OP2   C A  46     -11.832  20.581  50.800  1.00  0.00    -0.624 OA
BRANCH 1015 1018
ATOM   1018  O5'   C A  46     -13.770  21.646  49.649  1.00  0.00    -0.287 OA
BRANCH 1018 1019
ATOM   1019  C5'   C A  46     -13.734  22.962  49.099  1.00  0.00     0.216 C 
BRANCH 1019 1020
ATOM   1020  C4'   C A  46     -13.354  22.905  47.638  1.00  0.00     0.180 C 
ATOM   1021  O4'   C A  46     -13.928  21.711  47.037  1.00  0.00    -0.353 OA
ATOM   1022  C1'   C A  46     -14.323  21.991  45.703  1.00  0.00     0.264 C 
ATOM   1023  C2'   C A  46     -13.869  23.416  45.386  1.00  0.00     0.199 C 
ATOM   1024  C3'   C A  46     -13.886  24.040  46.774  1.00  0.00     0.198 C 
BRANCH 1022 1025
ATOM   1025  N1    C A  46     -15.779  21.797  45.595  1.00  0.00    -0.278 N 
ATOM   1026  C6    C A  46     -16.582  21.867  46.701  1.00  0.00     0.102 A 
ATOM   1027  C5    C A  46     -17.905  21.685  46.607  1.00  0.00     0.067 A 
ATOM   1028  C4    C A  46     -18.441  21.421  45.313  1.00  0.00     0.128 A 
ATOM   1029  N3    C A  46     -17.667  21.355  44.228  1.00  0.00    -0.177 NA
ATOM   1030  N4    C A  46     -19.749  21.229  45.156  1.00  0.00    -0.384 N 
ATOM   1031  C2    C A  46     -16.333  21.537  44.338  1.00  0.00     0.352 A 
ATOM   1032  O2    C A  46     -15.585  21.480  43.351  1.00  0.00    -0.244 OA
ATOM   1033  H42   C A  46     -20.121  21.046  44.234  1.00  0.00     0.157 HD
ATOM   1034  H41   C A  46     -20.369  21.270  45.952  1.00  0.00     0.157 HD
ENDBRANCH 1022 1025
BRANCH 1023 1035
ATOM   1035  O2'   C A  46     -12.555  23.368  44.863  1.00  0.00    -0.388 OA
ATOM   1036 'HO2   C A  46     -12.103  24.149  45.185  1.00  0.00     0.210 HD
ENDBRANCH 1023 1035
BRANCH 1024 1037
ATOM   1037  O3'   C A  46     -13.068  25.204  46.864  1.00  0.00    -0.279 OA
BRANCH 1037 1038
ATOM   1038  P     G A  47     -13.722  26.607  47.299  1.00  0.00     0.408 P 
ATOM   1039  OP2   G A  47     -15.026  26.337  47.958  1.00  0.00    -0.624 OA
ATOM   1040  OP1   G A  47     -12.678  27.372  48.026  1.00  0.00    -0.624 OA
BRANCH 1038 1041
ATOM   1041  O5'   G A  47     -14.005  27.346  45.916  1.00  0.00    -0.287 OA
BRANCH 1041 1042
ATOM   1042  C5'   G A  47     -14.384  28.720  45.886  1.00  0.00     0.216 C 
BRANCH 1042 1043
ATOM   1043  C4'   G A  47     -15.425  28.955  44.815  1.00  0.00     0.180 C 
ATOM   1044  O4'   G A  47     -14.770  29.180  43.538  1.00  0.00    -0.353 OA
ATOM   1045  C1'   G A  47     -15.607  28.714  42.492  1.00  0.00     0.262 C 
ATOM   1046  C2'   G A  47     -16.871  28.142  43.135  1.00  0.00     0.199 C 
ATOM   1047  N9    G A  47     -14.867  27.733  41.704  1.00  0.00    -0.293 N 
ATOM   1048  O2'   G A  47     -17.851  29.163  43.193  1.00  0.00    -0.388 OA
ATOM   1049  C3'   G A  47     -16.358  27.791  44.525  1.00  0.00     0.198 C 
ATOM   1050 'HO2   G A  47     -18.196  29.161  44.086  1.00  0.00     0.210 HD
ATOM   1051  O3'   G A  47     -17.404  27.688  45.488  1.00  0.00    -0.279 OA
ATOM   1052  P     A A  48     -18.168  26.287  45.687  1.00  0.00     0.408 P 
ATOM   1053  OP1   A A  48     -19.203  26.496  46.732  1.00  0.00    -0.624 OA
ATOM   1054  O5'   A A  48     -18.912  26.050  44.297  1.00  0.00    -0.287 OA
ATOM   1055  OP2   A A  48     -17.156  25.216  45.864  1.00  0.00    -0.624 OA
ATOM   1056  C5'   A A  48     -19.924  26.948  43.847  1.00  0.00     0.216 C 
ATOM   1057  C4'   A A  48     -20.352  26.596  42.440  1.00  0.00     0.180 C 
ATOM   1058  O4'   A A  48     -19.214  26.672  41.544  1.00  0.00    -0.353 OA
ATOM   1059  C3'   A A  48     -20.853  25.178  42.229  1.00  0.00     0.198 C 
ATOM   1060  C1'   A A  48     -19.421  25.791  40.451  1.00  0.00     0.262 C 
ATOM   1061  N9    A A  48     -18.248  24.928  40.316  1.00  0.00    -0.294 N 
ATOM   1062  C2'   A A  48     -20.715  25.018  40.719  1.00  0.00     0.199 C 
ATOM   1063  C8    A A  48     -17.181  24.801  41.170  1.00  0.00     0.214 A 
ATOM   1064  C4    A A  48     -18.000  24.061  39.277  1.00  0.00     0.167 A 
ATOM   1065  N7    A A  48     -16.281  23.936  40.768  1.00  0.00    -0.236 NA
ATOM   1066  C5    A A  48     -16.791  23.459  39.568  1.00  0.00     0.149 A 
ATOM   1067  C6    A A  48     -16.309  22.514  38.643  1.00  0.00     0.155 A 
ATOM   1068  N6    A A  48     -15.159  21.855  38.786  1.00  0.00    -0.382 N 
ATOM   1069  N1    A A  48     -17.061  22.266  37.549  1.00  0.00    -0.222 NA
ATOM   1070  H61   A A  48     -14.581  22.027  39.596  1.00  0.00     0.157 HD
ATOM   1071  H62   A A  48     -14.866  21.185  38.089  1.00  0.00     0.157 HD
ATOM   1072  C2    A A  48     -18.216  22.930  37.402  1.00  0.00     0.237 A 
ATOM   1073  N3    A A  48     -18.772  23.840  38.200  1.00  0.00    -0.222 NA
ATOM   1074  O2'   A A  48     -21.774  25.664  40.037  1.00  0.00    -0.388 OA
ATOM   1075 'HO2   A A  48     -22.479  25.782  40.673  1.00  0.00     0.210 HD
ATOM   1076  O3'   A A  48     -22.196  25.014  42.676  1.00  0.00    -0.279 OA
ATOM   1077  P     G A  49     -22.751  23.542  43.017  1.00  0.00     0.408 P 
ATOM   1078  OP1   G A  49     -24.050  23.713  43.716  1.00  0.00    -0.624 OA
ATOM   1079  OP2   G A  49     -21.666  22.762  43.667  1.00  0.00    -0.624 OA
ATOM   1080  O5'   G A  49     -23.039  22.897  41.588  1.00  0.00    -0.287 OA
ATOM   1081  C5'   G A  49     -23.990  23.481  40.701  1.00  0.00     0.216 C 
ATOM   1082  C4'   G A  49     -24.112  22.653  39.443  1.00  0.00     0.180 C 
ATOM   1083  O4'   G A  49     -22.895  22.780  38.661  1.00  0.00    -0.353 OA
ATOM   1084  C3'   G A  49     -24.248  21.151  39.643  1.00  0.00     0.198 C 
ATOM   1085  C1'   G A  49     -22.655  21.568  37.960  1.00  0.00     0.262 C 
ATOM   1086  C2'   G A  49     -23.804  20.614  38.290  1.00  0.00     0.199 C 
ATOM   1087  N9    G A  49     -21.347  21.055  38.356  1.00  0.00    -0.293 N 
ATOM   1088  O2'   G A  49     -24.821  20.774  37.319  1.00  0.00    -0.388 OA
ATOM   1089 'HO2   G A  49     -25.639  20.902  37.799  1.00  0.00     0.210 HD
ATOM   1090  C8    G A  49     -20.621  21.395  39.470  1.00  0.00     0.214 A 
ATOM   1091  C4    G A  49     -20.600  20.124  37.677  1.00  0.00     0.187 A 
ATOM   1092  N7    G A  49     -19.483  20.761  39.557  1.00  0.00    -0.234 NA
ATOM   1093  C5    G A  49     -19.457  19.952  38.429  1.00  0.00     0.173 A 
ATOM   1094  C6    G A  49     -18.475  19.033  37.976  1.00  0.00     0.292 A 
ATOM   1095  O6    G A  49     -17.392  18.740  38.498  1.00  0.00    -0.265 OA
ATOM   1096  N1    G A  49     -18.855  18.423  36.787  1.00  0.00    -0.153 N 
ATOM   1097  H1    G A  49     -18.221  17.750  36.387  1.00  0.00     0.187 HD
ATOM   1098  C2    G A  49     -20.025  18.668  36.115  1.00  0.00     0.703 A 
ATOM   1099  N3    G A  49     -20.946  19.521  36.521  1.00  0.00    -0.044 NA
ATOM   1100  N2    G A  49     -20.210  17.981  34.986  1.00  0.00    -0.233 N 
ATOM   1101  H21   G A  49     -21.055  18.123  34.452  1.00  0.00     0.174 HD
ATOM   1102  H22   G A  49     -19.511  17.323  34.669  1.00  0.00     0.174 HD
ATOM   1103  O3'   G A  49     -25.582  20.773  39.971  1.00  0.00    -0.279 OA
ATOM   1104  P     C A  50     -25.848  19.402  40.768  1.00  0.00     0.408 P 
ATOM   1105  OP1   C A  50     -27.320  19.228  40.871  1.00  0.00    -0.624 OA
ATOM   1106  OP2   C A  50     -25.022  19.408  42.003  1.00  0.00    -0.624 OA
ATOM   1107  O5'   C A  50     -25.280  18.272  39.798  1.00  0.00    -0.287 OA
ATOM   1108  C5'   C A  50     -25.905  18.002  38.543  1.00  0.00     0.216 C 
ATOM   1109  C4'   C A  50     -25.061  17.045  37.733  1.00  0.00     0.180 C 
ATOM   1110  O4'   C A  50     -23.728  17.590  37.562  1.00  0.00    -0.353 OA
ATOM   1111  C3'   C A  50     -24.798  15.687  38.364  1.00  0.00     0.198 C 
ATOM   1112  C1'   C A  50     -22.800  16.527  37.426  1.00  0.00     0.264 C 
ATOM   1113  N1    C A  50     -21.725  16.704  38.418  1.00  0.00    -0.278 N 
ATOM   1114  C2'   C A  50     -23.570  15.215  37.596  1.00  0.00     0.199 C 
ATOM   1115  C6    C A  50     -21.852  17.604  39.440  1.00  0.00     0.102 A 
ATOM   1116  C2    C A  50     -20.567  15.932  38.299  1.00  0.00     0.352 A 
ATOM   1117  C5    C A  50     -20.875  17.767  40.342  1.00  0.00     0.067 A 
ATOM   1118  C4    C A  50     -19.706  16.964  40.195  1.00  0.00     0.128 A 
ATOM   1119  N4    C A  50     -18.699  17.077  41.059  1.00  0.00    -0.384 N 
ATOM   1120  N3    C A  50     -19.576  16.082  39.203  1.00  0.00    -0.177 NA
ATOM   1121  H42   C A  50     -17.874  16.505  40.941  1.00  0.00     0.157 HD
ATOM   1122  H41   C A  50     -18.756  17.734  41.825  1.00  0.00     0.157 HD
ATOM   1123  O2    C A  50     -20.477  15.124  37.364  1.00  0.00    -0.244 OA
ATOM   1124  O2'   C A  50     -23.924  14.731  36.313  1.00  0.00    -0.388 OA
ATOM   1125 'HO2   C A  50     -24.876  14.625  36.312  1.00  0.00     0.210 HD
ATOM   1126  O3'   C A  50     -25.907  14.804  38.216  1.00  0.00    -0.279 OA
ATOM   1127  P     C A  51     -26.062  13.544  39.206  1.00  0.00     0.408 P 
ATOM   1128  OP1   C A  51     -27.331  12.858  38.854  1.00  0.00    -0.624 OA
ATOM   1129  OP2   C A  51     -25.841  14.011  40.599  1.00  0.00    -0.624 OA
ATOM   1130  O5'   C A  51     -24.852  12.588  38.806  1.00  0.00    -0.287 OA
ATOM   1131  C5'   C A  51     -24.749  12.042  37.492  1.00  0.00     0.216 C 
ATOM   1132  C4'   C A  51     -23.550  11.128  37.395  1.00  0.00     0.180 C 
ATOM   1133  O4'   C A  51     -22.336  11.922  37.446  1.00  0.00    -0.353 OA
ATOM   1134  C3'   C A  51     -23.380  10.136  38.535  1.00  0.00     0.198 C 
ATOM   1135  C1'   C A  51     -21.307  11.175  38.076  1.00  0.00     0.264 C 
ATOM   1136  N1    C A  51     -20.803  11.949  39.223  1.00  0.00    -0.278 N 
ATOM   1137  C2'   C A  51     -21.891   9.815  38.465  1.00  0.00     0.199 C 
ATOM   1138  C6    C A  51     -21.575  12.911  39.814  1.00  0.00     0.102 A 
ATOM   1139  C2    C A  51     -19.518  11.686  39.699  1.00  0.00     0.352 A 
ATOM   1140  C5    C A  51     -21.116  13.623  40.852  1.00  0.00     0.067 A 
ATOM   1141  C4    C A  51     -19.799  13.334  41.314  1.00  0.00     0.128 A 
ATOM   1142  N4    C A  51     -19.284  14.011  42.339  1.00  0.00    -0.384 N 
ATOM   1143  N3    C A  51     -19.042  12.394  40.747  1.00  0.00    -0.177 NA
ATOM   1144  H41   C A  51     -19.819  14.732  42.798  1.00  0.00     0.157 HD
ATOM   1145  H42   C A  51     -18.346  13.797  42.651  1.00  0.00     0.157 HD
ATOM   1146  O2    C A  51     -18.841  10.806  39.150  1.00  0.00    -0.244 OA
ATOM   1147  O2'   C A  51     -21.616   8.893  37.428  1.00  0.00    -0.388 OA
ATOM   1148 'HO2   C A  51     -22.443   8.732  36.973  1.00  0.00     0.210 HD
ATOM   1149  O3'   C A  51     -24.194   8.979  38.355  1.00  0.00    -0.279 OA
ATOM   1150  P     C A  52     -24.566   8.059  39.621  1.00  0.00     0.408 P 
ATOM   1151  OP1   C A  52     -25.589   7.080  39.174  1.00  0.00    -0.624 OA
ATOM   1152  OP2   C A  52     -24.853   8.943  40.780  1.00  0.00    -0.624 OA
ATOM   1153  O5'   C A  52     -23.221   7.261  39.930  1.00  0.00    -0.287 OA
ATOM   1154  C5'   C A  52     -22.609   6.438  38.938  1.00  0.00     0.216 C 
ATOM   1155  C4'   C A  52     -21.319   5.855  39.467  1.00  0.00     0.180 C 
ATOM   1156  O4'   C A  52     -20.307   6.894  39.488  1.00  0.00    -0.353 OA
ATOM   1157  C3'   C A  52     -21.369   5.345  40.900  1.00  0.00     0.182 C 
ATOM   1158  C1'   C A  52     -19.461   6.713  40.610  1.00  0.00     0.264 C 
ATOM   1159  N1    C A  52     -19.524   7.929  41.438  1.00  0.00    -0.278 N 
ATOM   1160  C2'   C A  52     -19.912   5.446  41.340  1.00  0.00     0.198 C 
ATOM   1161  C6    C A  52     -20.707   8.588  41.626  1.00  0.00     0.102 A 
ATOM   1162  C2    C A  52     -18.351   8.403  42.030  1.00  0.00     0.352 A 
ATOM   1163  C5    C A  52     -20.769   9.697  42.375  1.00  0.00     0.067 A 
ATOM   1164  C4    C A  52     -19.556  10.159  42.963  1.00  0.00     0.128 A 
ATOM   1165  N4    C A  52     -19.552  11.257  43.718  1.00  0.00    -0.384 N 
ATOM   1166  N3    C A  52     -18.398   9.522  42.787  1.00  0.00    -0.177 NA
ATOM   1167  H41   C A  52     -20.407  11.769  43.877  1.00  0.00     0.157 HD
ATOM   1168  H42   C A  52     -18.683  11.574  44.125  1.00  0.00     0.157 HD
ATOM   1169  O2    C A  52     -17.294   7.784  41.847  1.00  0.00    -0.244 OA
ATOM   1170  O2'   C A  52     -19.155   4.351  40.857  1.00  0.00    -0.388 OA
ATOM   1171 'HO2   C A  52     -19.753   3.606  40.786  1.00  0.00     0.210 HD
ATOM   1172  O3'   C A  52     -21.873   4.007  40.982  1.00  0.00    -0.390 OA
ATOM   1173 'HO3   C A  52     -22.682   3.977  40.467  1.00  0.00     0.210 HD
ATOM   1174  C4    G A  47     -15.199  27.280  40.450  1.00  0.00     0.187 A 
ATOM   1175  C8    G A  47     -13.716  27.074  42.060  1.00  0.00     0.214 A 
ATOM   1176  N3    G A  47     -16.267  27.668  39.724  1.00  0.00    -0.044 NA
ATOM   1177  C5    G A  47     -14.221  26.364  40.121  1.00  0.00     0.173 A 
ATOM   1178  C2    G A  47     -16.323  27.051  38.559  1.00  0.00     0.703 A 
ATOM   1179  N2    G A  47     -17.322  27.318  37.716  1.00  0.00    -0.233 N 
ATOM   1180  N1    G A  47     -15.405  26.126  38.135  1.00  0.00    -0.153 N 
ATOM   1181  H21   G A  47     -18.026  27.992  37.978  1.00  0.00     0.174 HD
ATOM   1182  H22   G A  47     -17.377  26.845  36.824  1.00  0.00     0.174 HD
ATOM   1183  C6    G A  47     -14.296  25.709  38.862  1.00  0.00     0.292 A 
ATOM   1184  H1    G A  47     -15.540  25.712  37.225  1.00  0.00     0.187 HD
ATOM   1185  O6    G A  47     -13.528  24.866  38.384  1.00  0.00    -0.265 OA
ATOM   1186  N7    G A  47     -13.291  26.246  41.144  1.00  0.00    -0.234 NA
ENDBRANCH 1042 1043
ENDBRANCH 1041 1042
ENDBRANCH 1038 1041
ENDBRANCH 1037 1038
ENDBRANCH 1024 1037
ENDBRANCH 1019 1020
ENDBRANCH 1018 1019
ENDBRANCH 1015 1018
ENDBRANCH 1012 1015
ENDBRANCH 989 990
ENDBRANCH 956 989
BRANCH 958 1187
ATOM   1187  O2'   G A  44     -16.742  19.317  52.893  1.00  0.00    -0.388 OA
ATOM   1188 'HO2   G A  44     -16.329  18.630  52.368  1.00  0.00     0.210 HD
ENDBRANCH 958 1187
ENDBRANCH 942 943
ENDBRANCH 941 942
ENDBRANCH 938 941
ENDBRANCH 937 938
ENDBRANCH 922 937
ENDBRANCH 840 846
BRANCH 843 1189
ATOM   1189  N9    A A  38     -24.493  -0.130  46.057  1.00  0.00    -0.294 N 
ATOM   1190  C4    A A  38     -23.369   0.640  45.881  1.00  0.00     0.167 A 
ATOM   1191  N3    A A  38     -22.198   0.533  46.531  1.00  0.00    -0.222 NA
ATOM   1192  C5    A A  38     -23.688   1.554  44.894  1.00  0.00     0.149 A 
ATOM   1193  C2    A A  38     -21.335   1.449  46.098  1.00  0.00     0.237 A 
ATOM   1194  N1    A A  38     -21.498   2.388  45.160  1.00  0.00    -0.222 NA
ATOM   1195  C6    A A  38     -22.687   2.470  44.526  1.00  0.00     0.155 A 
ATOM   1196  N6    A A  38     -22.846   3.408  43.592  1.00  0.00    -0.382 N 
ATOM   1197  H62   A A  38     -22.083   4.034  43.381  1.00  0.00     0.157 HD
ATOM   1198  H61   A A  38     -23.726   3.488  43.104  1.00  0.00     0.157 HD
ATOM   1199  N7    A A  38     -24.991   1.365  44.453  1.00  0.00    -0.236 NA
ATOM   1200  C8    A A  38     -25.423   0.357  45.173  1.00  0.00     0.214 A 
ENDBRANCH 843 1189
ENDBRANCH 838 839
ENDBRANCH 837 838
ENDBRANCH 834 837
ENDBRANCH 833 834
ENDBRANCH 818 833
ENDBRANCH 813 814
ENDBRANCH 796 813
ENDBRANCH 765 766
ENDBRANCH 764 765
ENDBRANCH 761 764
ENDBRANCH 760 761
ENDBRANCH 696 760
BRANCH 755 1201
ATOM   1201  N9    A A  29     -25.275  21.137  19.375  1.00  0.00    -0.294 N 
ATOM   1202  C8    A A  29     -25.866  22.201  18.738  1.00  0.00     0.214 A 
ATOM   1203  N7    A A  29     -25.277  23.349  18.969  1.00  0.00    -0.236 NA
ATOM   1204  C5    A A  29     -24.229  23.019  19.819  1.00  0.00     0.149 A 
ATOM   1205  C4    A A  29     -24.217  21.661  20.078  1.00  0.00     0.167 A 
ATOM   1206  C6    A A  29     -23.228  23.794  20.432  1.00  0.00     0.155 A 
ATOM   1207  N3    A A  29     -23.347  20.996  20.857  1.00  0.00    -0.222 NA
ATOM   1208  C2    A A  29     -22.454  21.832  21.381  1.00  0.00     0.237 A 
ATOM   1209  N1    A A  29     -22.338  23.158  21.225  1.00  0.00    -0.222 NA
ATOM   1210  N6    A A  29     -23.110  25.111  20.272  1.00  0.00    -0.382 N 
ATOM   1211  H61   A A  29     -23.764  25.606  19.683  1.00  0.00     0.157 HD
ATOM   1212  H62   A A  29     -22.375  25.618  20.746  1.00  0.00     0.157 HD
ENDBRANCH 755 1201
ENDBRANCH 627 628
ENDBRANCH 626 627
ENDBRANCH 623 626
ENDBRANCH 622 623
ENDBRANCH 592 622
BRANCH 594 1213
ATOM   1213  O2'   G A  28     -21.391  17.482  16.090  1.00  0.00    -0.388 OA
ATOM   1214 'HO2   G A  28     -20.957  17.521  15.237  1.00  0.00     0.210 HD
ENDBRANCH 594 1213
BRANCH 604 1215
ATOM   1215  N2    G A  28     -17.310  14.385  13.973  1.00  0.00    -0.233 N 
ATOM   1216  H21   G A  28     -17.576  14.281  13.005  1.00  0.00     0.174 HD
ATOM   1217  H22   G A  28     -16.489  14.920  14.220  1.00  0.00     0.174 HD
ENDBRANCH 604 1215
ENDBRANCH 552 553
ENDBRANCH 549 552
ENDBRANCH 548 549
ENDBRANCH 544 548
BRANCH 545 1218
ATOM   1218  O2'   C A  25     -18.424   4.000  23.798  1.00  0.00    -0.388 OA
ATOM   1219 'HO2   C A  25     -17.522   3.919  23.486  1.00  0.00     0.210 HD
ENDBRANCH 545 1218
BRANCH 546 1220
ATOM   1220  N1    C A  25     -19.943   2.517  20.813  1.00  0.00    -0.278 N 
ATOM   1221  C2    C A  25     -18.944   1.990  19.992  1.00  0.00     0.352 A 
ATOM   1222  N3    C A  25     -19.177   1.859  18.667  1.00  0.00    -0.177 NA
ATOM   1223  O2    C A  25     -17.865   1.655  20.500  1.00  0.00    -0.244 OA
ATOM   1224  C4    C A  25     -20.353   2.227  18.159  1.00  0.00     0.128 A 
ATOM   1225  C5    C A  25     -21.392   2.763  18.972  1.00  0.00     0.067 A 
ATOM   1226  N4    C A  25     -20.536   2.078  16.848  1.00  0.00    -0.384 N 
ATOM   1227  C6    C A  25     -21.145   2.891  20.282  1.00  0.00     0.102 A 
ATOM   1228  H42   C A  25     -19.793   1.700  16.277  1.00  0.00     0.157 HD
ATOM   1229  H41   C A  25     -21.413   2.345  16.424  1.00  0.00     0.157 HD
ENDBRANCH 546 1220
ENDBRANCH 513 543
ENDBRANCH 367 368
ENDBRANCH 364 367
ENDBRANCH 363 364
ENDBRANCH 360 363
ENDBRANCH 346 347
ENDBRANCH 345 346
ENDBRANCH 342 345
ENDBRANCH 341 342
ENDBRANCH 317 341
ENDBRANCH 251 252
ENDBRANCH 250 251
ENDBRANCH 247 250
ENDBRANCH 246 247
ENDBRANCH 223 246
ENDBRANCH 206 207
ENDBRANCH 205 206
ENDBRANCH 202 205
ENDBRANCH 201 202
ENDBRANCH 179 201
BRANCH 197 1230
ATOM   1230  N9    G A   9     -30.569   7.891  29.583  1.00  0.00    -0.293 N 
ATOM   1231  C4    G A   9     -29.308   7.478  29.225  1.00  0.00     0.187 A 
ATOM   1232  N3    G A   9     -28.223   8.270  29.093  1.00  0.00    -0.044 NA
ATOM   1233  C5    G A   9     -29.407   6.116  29.038  1.00  0.00     0.173 A 
ATOM   1234  C2    G A   9     -27.154   7.583  28.734  1.00  0.00     0.703 A 
ATOM   1235  N1    G A   9     -27.145   6.228  28.523  1.00  0.00    -0.153 N 
ATOM   1236  C6    G A   9     -28.248   5.392  28.656  1.00  0.00     0.292 A 
ATOM   1237  H1    G A   9     -26.273   5.803  28.252  1.00  0.00     0.187 HD
ATOM   1238  O6    G A   9     -28.127   4.179  28.444  1.00  0.00    -0.265 OA
ATOM   1239  N7    G A   9     -30.704   5.679  29.275  1.00  0.00    -0.234 NA
ATOM   1240  C8    G A   9     -31.355   6.765  29.593  1.00  0.00     0.214 A 
BRANCH 1234 1241
ATOM   1241  N2    G A   9     -25.991   8.214  28.558  1.00  0.00    -0.233 N 
ATOM   1242  H21   G A   9     -25.665   8.401  27.621  1.00  0.00     0.174 HD
ATOM   1243  H22   G A   9     -25.438   8.497  29.356  1.00  0.00     0.174 HD
ENDBRANCH 1234 1241
ENDBRANCH 197 1230
ENDBRANCH 165 166
ENDBRANCH 162 165
ENDBRANCH 137 162
ENDBRANCH 113 117
BRANCH 114 1244
ATOM   1244  O2'   G A   6     -27.138   0.831  35.329  1.00  0.00    -0.388 OA
ATOM   1245 'HO2   G A   6     -27.287   0.371  34.502  1.00  0.00     0.210 HD
ENDBRANCH 114 1244
BRANCH 115 1246
ATOM   1246  N9    G A   6     -26.648  -0.138  38.803  1.00  0.00    -0.293 N 
ATOM   1247  C8    G A   6     -27.159  -0.884  39.838  1.00  0.00     0.214 A 
ATOM   1248  N7    G A   6     -26.257  -1.240  40.710  1.00  0.00    -0.234 NA
ATOM   1249  C5    G A   6     -25.075  -0.700  40.219  1.00  0.00     0.173 A 
ATOM   1250  C4    G A   6     -25.300  -0.019  39.042  1.00  0.00     0.187 A 
ATOM   1251  C6    G A   6     -23.753  -0.754  40.735  1.00  0.00     0.292 A 
ATOM   1252  N3    G A   6     -24.412   0.636  38.265  1.00  0.00    -0.044 NA
ATOM   1253  C2    G A   6     -23.187   0.576  38.758  1.00  0.00     0.703 A 
ATOM   1254  N2    G A   6     -22.181   1.171  38.112  1.00  0.00    -0.233 N 
ATOM   1255  N1    G A   6     -22.858  -0.073  39.920  1.00  0.00    -0.153 N 
ATOM   1256  H22   G A   6     -21.242   1.128  38.483  1.00  0.00     0.174 HD
ATOM   1257  H21   G A   6     -22.364   1.663  37.250  1.00  0.00     0.174 HD
ATOM   1258  H1    G A   6     -21.891  -0.056  40.207  1.00  0.00     0.187 HD
ATOM   1259  O6    G A   6     -23.348  -1.309  41.763  1.00  0.00    -0.265 OA
ENDBRANCH 115 1246
ENDBRANCH 111 112
ENDBRANCH 110 111
ENDBRANCH 107 110
ENDBRANCH 106 107
ENDBRANCH 102 106
BRANCH 103 1260
ATOM   1260  O2'   C A   5     -32.566   1.820  40.653  1.00  0.00    -0.388 OA
ATOM   1261 'HO2   C A   5     -32.090   1.696  41.476  1.00  0.00     0.210 HD
ENDBRANCH 103 1260
BRANCH 104 1262
ATOM   1262  N1    C A   5     -36.017   0.940  41.251  1.00  0.00    -0.278 N 
ATOM   1263  C2    C A   5     -36.096   1.220  42.616  1.00  0.00     0.352 A 
ATOM   1264  O2    C A   5     -35.263   1.983  43.123  1.00  0.00    -0.244 OA
ATOM   1265  N3    C A   5     -37.077   0.653  43.353  1.00  0.00    -0.177 NA
ATOM   1266  C4    C A   5     -37.960  -0.160  42.773  1.00  0.00     0.128 A 
ATOM   1267  N4    C A   5     -38.909  -0.693  43.540  1.00  0.00    -0.384 N 
ATOM   1268  C5    C A   5     -37.906  -0.464  41.381  1.00  0.00     0.067 A 
ATOM   1269  H42   C A   5     -38.937  -0.477  44.527  1.00  0.00     0.157 HD
ATOM   1270  H41   C A   5     -39.599  -1.315  43.144  1.00  0.00     0.157 HD
ATOM   1271  C6    C A   5     -36.925   0.102  40.665  1.00  0.00     0.102 A 
ENDBRANCH 104 1262
ENDBRANCH 100 101
ENDBRANCH  99 100
ENDBRANCH  96  99
ENDBRANCH  95  96
ENDBRANCH  67  95
ENDBRANCH  24  27
ENDBRANCH  23  24
ENDBRANCH  22  23
BRANCH  21 1272
ATOM   1272  O2'   G A   1     -41.708   5.397  48.364  1.00  0.00    -0.388 OA
ATOM   1273 'HO2   G A   1     -41.731   5.286  47.413  1.00  0.00     0.210 HD
ENDBRANCH  21 1272
TORSDOF 402
ENDMDL
MODEL 7
REMARK VINA RESULT:      -1.1      5.740     22.122
REMARK WARNING: 32 MAX_TORS EXCEEDED!!!
REMARK  101 active torsions:
REMARK  status: ('A' for Active; 'I' for Inactive)
REMARK       I    between atoms: O5'_2  and  C5'_3 
REMARK       I    between atoms: C5'_3  and  C4'_4 
REMARK       I    between atoms: C1'_6  and  N9_7 
REMARK       I    between atoms: C2_10  and  N2_11 
REMARK    1  A    between atoms: C2'_21  and  O2'_22 
REMARK    2  A    between atoms: C3'_24  and  O3'_25 
REMARK    3  A    between atoms: O3'_25  and  P_26 
REMARK    4  A    between atoms: P_26  and  O5'_29 
REMARK       I    between atoms: O5'_29  and  C5'_30 
REMARK       I    between atoms: C5'_30  and  C4'_31 
REMARK       I    between atoms: C1'_33  and  N9_34 
REMARK       I    between atoms: C2_37  and  N2_38 
REMARK       I    between atoms: C2'_48  and  O2'_49 
REMARK       I    between atoms: C3'_51  and  O3'_52 
REMARK       I    between atoms: O3'_52  and  P_53 
REMARK       I    between atoms: P_53  and  O5'_56 
REMARK       I    between atoms: O5'_56  and  C5'_57 
REMARK       I    between atoms: C5'_57  and  C4'_58 
REMARK       I    between atoms: C1'_60  and  N1_61 
REMARK       I    between atoms: C4_66  and  N4_67 
REMARK       I    between atoms: C2'_71  and  O2'_72 
REMARK       I    between atoms: C3'_74  and  O3'_75 
REMARK       I    between atoms: O3'_75  and  P_76 
REMARK       I    between atoms: P_76  and  O5'_79 
REMARK       I    between atoms: O5'_79  and  C5'_80 
REMARK       I    between atoms: C5'_80  and  C4'_81 
REMARK       I    between atoms: C1'_83  and  N1_84 
REMARK       I    between atoms: C2'_93  and  O2'_94 
REMARK    5  A    between atoms: C3'_96  and  O3'_97 
REMARK    6  A    between atoms: O3'_97  and  P_98 
REMARK    7  A    between atoms: P_98  and  O5'_101 
REMARK    8  A    between atoms: O5'_101  and  C5'_102 
REMARK    9  A    between atoms: C5'_102  and  C4'_103 
REMARK   10  A    between atoms: C1'_105  and  N1_106 
REMARK       I    between atoms: C4_111  and  N4_112 
REMARK   11  A    between atoms: C2'_116  and  O2'_117 
REMARK   12  A    between atoms: C3'_119  and  O3'_120 
REMARK   13  A    between atoms: O3'_120  and  P_121 
REMARK   14  A    between atoms: P_121  and  O5'_124 
REMARK   15  A    between atoms: O5'_124  and  C5'_125 
REMARK   16  A    between atoms: C5'_125  and  C4'_126 
REMARK   17  A    between atoms: C1'_128  and  N9_129 
REMARK       I    between atoms: C2_132  and  N2_133 
REMARK   18  A    between atoms: C2'_143  and  O2'_144 
REMARK   19  A    between atoms: C3'_146  and  O3'_147 
REMARK       I    between atoms: O3'_147  and  P_148 
REMARK       I    between atoms: P_148  and  O5'_151 
REMARK       I    between atoms: O5'_151  and  C5'_152 
REMARK       I    between atoms: C5'_152  and  C4'_153 
REMARK       I    between atoms: C1'_155  and  N1_156 
REMARK       I    between atoms: C2'_165  and  O2'_166 
REMARK       I    between atoms: C3'_168  and  O3'_169 
REMARK       I    between atoms: O3'_169  and  P_170 
REMARK       I    between atoms: P_170  and  O5'_173 
REMARK       I    between atoms: O5'_173  and  C5'_174 
REMARK       I    between atoms: C5'_174  and  C4'_175 
REMARK       I    between atoms: C1'_177  and  N1_178 
REMARK       I    between atoms: C2'_187  and  O2'_188 
REMARK       I    between atoms: C3'_190  and  O3'_191 
REMARK   20  A    between atoms: O3'_191  and  P_192 
REMARK   21  A    between atoms: P_192  and  O5'_195 
REMARK   22  A    between atoms: O5'_195  and  C5'_196 
REMARK       I    between atoms: C5'_196  and  C4'_197 
REMARK   23  A    between atoms: C1'_199  and  N9_200 
REMARK   24  A    between atoms: C2_203  and  N2_204 
REMARK       I    between atoms: C2'_214  and  O2'_215 
REMARK       I    between atoms: C3'_217  and  O3'_218 
REMARK       I    between atoms: O3'_218  and  P_219 
REMARK       I    between atoms: P_219  and  O5'_222 
REMARK       I    between atoms: O5'_222  and  C5'_223 
REMARK       I    between atoms: C5'_223  and  C4'_224 
REMARK       I    between atoms: C1'_226  and  N9_227 
REMARK       I    between atoms: C2_230  and  N2_231 
REMARK   25  A    between atoms: C2'_241  and  O2'_242 
REMARK   26  A    between atoms: C3'_244  and  O3'_245 
REMARK   27  A    between atoms: O3'_245  and  P_246 
REMARK   28  A    between atoms: P_246  and  O5'_249 
REMARK   29  A    between atoms: O5'_249  and  C5'_250 
REMARK   30  A    between atoms: C5'_250  and  C4'_251 
REMARK       I    between atoms: C1'_253  and  N1_254 
REMARK       I    between atoms: C2'_263  and  O2'_264 
REMARK       I    between atoms: C3'_266  and  O3'_267 
REMARK       I    between atoms: O3'_267  and  P_268 
REMARK       I    between atoms: P_268  and  O5'_271 
REMARK       I    between atoms: O5'_271  and  C5'_272 
REMARK       I    between atoms: C5'_272  and  C4'_273 
REMARK       I    between atoms: C1'_275  and  N1_276 
REMARK       I    between atoms: C4_281  and  N4_282 
REMARK   31  A    between atoms: C2'_286  and  O2'_287 
REMARK   32  A    between atoms: C3'_289  and  O3'_290 
REMARK   33  A    between atoms: O3'_290  and  P_291 
REMARK   34  A    between atoms: P_291  and  O5'_294 
REMARK   35  A    between atoms: O5'_294  and  C5'_295 
REMARK   36  A    between atoms: C5'_295  and  C4'_296 
REMARK   37  A    between atoms: C1'_298  and  N1_299 
REMARK       I    between atoms: C2'_308  and  O2'_309 
REMARK       I    between atoms: C3'_311  and  O3'_312 
REMARK       I    between atoms: O3'_312  and  P_313 
REMARK       I    between atoms: P_313  and  O5'_316 
REMARK       I    between atoms: O5'_316  and  C5'_317 
REMARK       I    between atoms: C5'_317  and  C4'_318 
REMARK       I    between atoms: C1'_320  and  N1_321 
REMARK       I    between atoms: C4_326  and  N4_327 
REMARK       I    between atoms: C2'_331  and  O2'_332 
REMARK       I    between atoms: C3'_334  and  O3'_335 
REMARK       I    between atoms: O3'_335  and  P_336 
REMARK       I    between atoms: P_336  and  O5'_339 
REMARK       I    between atoms: O5'_339  and  C5'_340 
REMARK       I    between atoms: C5'_340  and  C4'_341 
REMARK       I    between atoms: C1'_343  and  N9_344 
REMARK       I    between atoms: C2_347  and  N2_348 
REMARK       I    between atoms: C2'_358  and  O2'_359 
REMARK       I    between atoms: C3'_361  and  O3'_362 
REMARK       I    between atoms: O3'_362  and  P_363 
REMARK       I    between atoms: P_363  and  O5'_366 
REMARK       I    between atoms: O5'_366  and  C5'_367 
REMARK       I    between atoms: C5'_367  and  C4'_368 
REMARK       I    between atoms: C1'_370  and  N1_371 
REMARK       I    between atoms: C4_376  and  N4_377 
REMARK   38  A    between atoms: C2'_381  and  O2'_382 
REMARK   39  A    between atoms: C3'_384  and  O3'_385 
REMARK   40  A    between atoms: O3'_385  and  P_386 
REMARK   41  A    between atoms: P_386  and  O5'_389 
REMARK   42  A    between atoms: O5'_389  and  C5'_390 
REMARK   43  A    between atoms: C5'_390  and  C4'_391 
REMARK       I    between atoms: C1'_393  and  N1_394 
REMARK       I    between atoms: C2'_403  and  O2'_404 
REMARK   44  A    between atoms: C3'_406  and  O3'_407 
REMARK   45  A    between atoms: O3'_407  and  P_408 
REMARK   46  A    between atoms: P_408  and  O5'_411 
REMARK   47  A    between atoms: O5'_411  and  C5'_412 
REMARK       I    between atoms: C5'_412  and  C4'_413 
REMARK       I    between atoms: C1'_415  and  N1_416 
REMARK       I    between atoms: C2'_425  and  O2'_426 
REMARK       I    between atoms: C3'_428  and  O3'_429 
REMARK       I    between atoms: O3'_429  and  P_430 
REMARK       I    between atoms: P_430  and  O5'_433 
REMARK       I    between atoms: O5'_433  and  C5'_434 
REMARK       I    between atoms: C5'_434  and  C4'_435 
REMARK       I    between atoms: C1'_437  and  N1_438 
REMARK       I    between atoms: C2'_447  and  O2'_448 
REMARK       I    between atoms: C3'_450  and  O3'_451 
REMARK       I    between atoms: O3'_451  and  P_452 
REMARK       I    between atoms: P_452  and  O5'_455 
REMARK       I    between atoms: O5'_455  and  C5'_456 
REMARK       I    between atoms: C5'_456  and  C4'_457 
REMARK       I    between atoms: C1'_459  and  N9_460 
REMARK       I    between atoms: C2_463  and  N2_464 
REMARK       I    between atoms: C2'_474  and  O2'_475 
REMARK       I    between atoms: C3'_477  and  O3'_478 
REMARK       I    between atoms: O3'_478  and  P_479 
REMARK       I    between atoms: P_479  and  O5'_482 
REMARK       I    between atoms: O5'_482  and  C5'_483 
REMARK       I    between atoms: C5'_483  and  C4'_484 
REMARK       I    between atoms: C1'_486  and  N9_487 
REMARK       I    between atoms: C2_490  and  N2_491 
REMARK       I    between atoms: C2'_501  and  O2'_502 
REMARK       I    between atoms: C3'_504  and  O3'_505 
REMARK       I    between atoms: O3'_505  and  P_506 
REMARK       I    between atoms: P_506  and  O5'_509 
REMARK       I    between atoms: O5'_509  and  C5'_510 
REMARK       I    between atoms: C5'_510  and  C4'_511 
REMARK       I    between atoms: C1'_513  and  N9_514 
REMARK       I    between atoms: C2_517  and  N2_518 
REMARK       I    between atoms: C2'_528  and  O2'_529 
REMARK       I    between atoms: C3'_531  and  O3'_532 
REMARK       I    between atoms: O3'_532  and  P_533 
REMARK       I    between atoms: P_533  and  O5'_536 
REMARK       I    between atoms: O5'_536  and  C5'_537 
REMARK       I    between atoms: C5'_537  and  C4'_538 
REMARK       I    between atoms: C1'_540  and  N1_541 
REMARK       I    between atoms: C2'_550  and  O2'_551 
REMARK       I    between atoms: C3'_553  and  O3'_554 
REMARK       I    between atoms: O3'_554  and  P_555 
REMARK       I    between atoms: P_555  and  O5'_558 
REMARK       I    between atoms: O5'_558  and  C5'_559 
REMARK       I    between atoms: C5'_559  and  C4'_560 
REMARK       I    between atoms: C1'_562  and  N9_563 
REMARK       I    between atoms: C2_566  and  N2_567 
REMARK       I    between atoms: C2'_577  and  O2'_578 
REMARK       I    between atoms: C3'_580  and  O3'_581 
REMARK       I    between atoms: O3'_581  and  P_582 
REMARK       I    between atoms: P_582  and  O5'_585 
REMARK       I    between atoms: O5'_585  and  C5'_586 
REMARK   48  A    between atoms: C5'_586  and  C4'_587 
REMARK   49  A    between atoms: C1'_589  and  N1_590 
REMARK       I    between atoms: C4_595  and  N4_596 
REMARK   50  A    between atoms: C2'_600  and  O2'_601 
REMARK   51  A    between atoms: C3'_603  and  O3'_604 
REMARK   52  A    between atoms: O3'_604  and  P_605 
REMARK   53  A    between atoms: P_605  and  O5'_608 
REMARK   54  A    between atoms: O5'_608  and  C5'_609 
REMARK       I    between atoms: C5'_609  and  C4'_610 
REMARK       I    between atoms: C1'_612  and  N9_613 
REMARK       I    between atoms: C2_616  and  N2_617 
REMARK       I    between atoms: C2'_627  and  O2'_628 
REMARK       I    between atoms: C3'_630  and  O3'_631 
REMARK       I    between atoms: O3'_631  and  P_632 
REMARK       I    between atoms: P_632  and  O5'_635 
REMARK       I    between atoms: O5'_635  and  C5'_636 
REMARK       I    between atoms: C5'_636  and  C4'_637 
REMARK       I    between atoms: C1'_639  and  N9_640 
REMARK       I    between atoms: C6_645  and  N6_646 
REMARK       I    between atoms: C2'_652  and  O2'_653 
REMARK       I    between atoms: C3'_655  and  O3'_656 
REMARK       I    between atoms: O3'_656  and  P_657 
REMARK       I    between atoms: P_657  and  O5'_660 
REMARK       I    between atoms: O5'_660  and  C5'_661 
REMARK       I    between atoms: C5'_661  and  C4'_662 
REMARK       I    between atoms: C1'_664  and  N9_665 
REMARK   55  A    between atoms: C2_668  and  N2_669 
REMARK   56  A    between atoms: C2'_679  and  O2'_680 
REMARK   57  A    between atoms: C3'_682  and  O3'_683 
REMARK   58  A    between atoms: O3'_683  and  P_684 
REMARK   59  A    between atoms: P_684  and  O5'_687 
REMARK   60  A    between atoms: O5'_687  and  C5'_688 
REMARK   61  A    between atoms: C5'_688  and  C4'_689 
REMARK   62  A    between atoms: C1'_691  and  N9_692 
REMARK       I    between atoms: C6_697  and  N6_698 
REMARK       I    between atoms: C2'_704  and  O2'_705 
REMARK       I    between atoms: C3'_707  and  O3'_708 
REMARK       I    between atoms: O3'_708  and  P_709 
REMARK       I    between atoms: P_709  and  O5'_712 
REMARK       I    between atoms: O5'_712  and  C5'_713 
REMARK       I    between atoms: C5'_713  and  C4'_714 
REMARK       I    between atoms: C1'_716  and  N9_717 
REMARK       I    between atoms: C2_720  and  N2_721 
REMARK       I    between atoms: C2'_731  and  O2'_732 
REMARK       I    between atoms: C3'_734  and  O3'_735 
REMARK       I    between atoms: O3'_735  and  P_736 
REMARK       I    between atoms: P_736  and  O5'_739 
REMARK       I    between atoms: O5'_739  and  C5'_740 
REMARK       I    between atoms: C5'_740  and  C4'_741 
REMARK       I    between atoms: C1'_743  and  N9_744 
REMARK       I    between atoms: C2_747  and  N2_748 
REMARK       I    between atoms: C2'_758  and  O2'_759 
REMARK       I    between atoms: C3'_761  and  O3'_762 
REMARK       I    between atoms: O3'_762  and  P_763 
REMARK       I    between atoms: P_763  and  O5'_766 
REMARK       I    between atoms: O5'_766  and  C5'_767 
REMARK       I    between atoms: C5'_767  and  C4'_768 
REMARK       I    between atoms: C1'_770  and  N9_771 
REMARK       I    between atoms: C2_774  and  N2_775 
REMARK       I    between atoms: C2'_785  and  O2'_786 
REMARK       I    between atoms: C3'_788  and  O3'_789 
REMARK       I    between atoms: O3'_789  and  P_790 
REMARK       I    between atoms: P_790  and  O5'_793 
REMARK       I    between atoms: O5'_793  and  C5'_794 
REMARK       I    between atoms: C5'_794  and  C4'_795 
REMARK       I    between atoms: C1'_797  and  N1_798 
REMARK       I    between atoms: C2'_807  and  O2'_808 
REMARK       I    between atoms: C3'_810  and  O3'_811 
REMARK       I    between atoms: O3'_811  and  P_812 
REMARK       I    between atoms: P_812  and  O5'_815 
REMARK       I    between atoms: O5'_815  and  C5'_816 
REMARK       I    between atoms: C5'_816  and  C4'_817 
REMARK       I    between atoms: C1'_819  and  N1_820 
REMARK   63  A    between atoms: C2'_829  and  O2'_830 
REMARK   64  A    between atoms: C3'_832  and  O3'_833 
REMARK   65  A    between atoms: O3'_833  and  P_834 
REMARK   66  A    between atoms: P_834  and  O5'_837 
REMARK   67  A    between atoms: O5'_837  and  C5'_838 
REMARK   68  A    between atoms: C5'_838  and  C4'_839 
REMARK       I    between atoms: C1'_841  and  N1_842 
REMARK       I    between atoms: C4_847  and  N4_848 
REMARK       I    between atoms: C2'_852  and  O2'_853 
REMARK       I    between atoms: C3'_855  and  O3'_856 
REMARK       I    between atoms: O3'_856  and  P_857 
REMARK       I    between atoms: P_857  and  O5'_860 
REMARK       I    between atoms: O5'_860  and  C5'_861 
REMARK       I    between atoms: C5'_861  and  C4'_862 
REMARK       I    between atoms: C1'_864  and  N9_865 
REMARK       I    between atoms: C6_870  and  N6_871 
REMARK       I    between atoms: C2'_877  and  O2'_878 
REMARK       I    between atoms: C3'_880  and  O3'_881 
REMARK       I    between atoms: O3'_881  and  P_882 
REMARK       I    between atoms: P_882  and  O5'_885 
REMARK   69  A    between atoms: O5'_885  and  C5'_886 
REMARK   70  A    between atoms: C5'_886  and  C4'_887 
REMARK   71  A    between atoms: C1'_889  and  N9_890 
REMARK       I    between atoms: C6_895  and  N6_896 
REMARK   72  A    between atoms: C2'_902  and  O2'_903 
REMARK   73  A    between atoms: C3'_905  and  O3'_906 
REMARK   74  A    between atoms: O3'_906  and  P_907 
REMARK   75  A    between atoms: P_907  and  O5'_910 
REMARK   76  A    between atoms: O5'_910  and  C5'_911 
REMARK   77  A    between atoms: C5'_911  and  C4'_912 
REMARK   78  A    between atoms: C1'_914  and  N9_915 
REMARK       I    between atoms: C6_920  and  N6_921 
REMARK       I    between atoms: C2'_927  and  O2'_928 
REMARK   79  A    between atoms: C3'_930  and  O3'_931 
REMARK       I    between atoms: O3'_931  and  P_932 
REMARK       I    between atoms: P_932  and  O5'_935 
REMARK       I    between atoms: O5'_935  and  C5'_936 
REMARK       I    between atoms: C5'_936  and  C4'_937 
REMARK       I    between atoms: C1'_939  and  N1_940 
REMARK       I    between atoms: C2'_949  and  O2'_950 
REMARK       I    between atoms: C3'_952  and  O3'_953 
REMARK       I    between atoms: O3'_953  and  P_954 
REMARK       I    between atoms: P_954  and  O5'_957 
REMARK       I    between atoms: O5'_957  and  C5'_958 
REMARK       I    between atoms: C5'_958  and  C4'_959 
REMARK       I    between atoms: C1'_961  and  N1_962 
REMARK       I    between atoms: C4_967  and  N4_968 
REMARK       I    between atoms: C2'_972  and  O2'_973 
REMARK       I    between atoms: C3'_975  and  O3'_976 
REMARK       I    between atoms: O3'_976  and  P_977 
REMARK       I    between atoms: P_977  and  O5'_980 
REMARK       I    between atoms: O5'_980  and  C5'_981 
REMARK       I    between atoms: C5'_981  and  C4'_982 
REMARK       I    between atoms: C1'_984  and  N1_985 
REMARK       I    between atoms: C4_990  and  N4_991 
REMARK       I    between atoms: C2'_995  and  O2'_996 
REMARK       I    between atoms: C3'_998  and  O3'_999 
REMARK       I    between atoms: O3'_999  and  P_1000 
REMARK       I    between atoms: P_1000  and  O5'_1003 
REMARK       I    between atoms: O5'_1003  and  C5'_1004 
REMARK       I    between atoms: C5'_1004  and  C4'_1005 
REMARK   80  A    between atoms: C1'_1007  and  N1_1008 
REMARK       I    between atoms: C4_1013  and  N4_1014 
REMARK   81  A    between atoms: C2'_1018  and  O2'_1019 
REMARK   82  A    between atoms: C3'_1021  and  O3'_1022 
REMARK   83  A    between atoms: O3'_1022  and  P_1023 
REMARK   84  A    between atoms: P_1023  and  O5'_1026 
REMARK   85  A    between atoms: O5'_1026  and  C5'_1027 
REMARK   86  A    between atoms: C5'_1027  and  C4'_1028 
REMARK   87  A    between atoms: C1'_1030  and  N9_1031 
REMARK       I    between atoms: C2_1034  and  N2_1035 
REMARK       I    between atoms: C2'_1045  and  O2'_1046 
REMARK       I    between atoms: C3'_1048  and  O3'_1049 
REMARK       I    between atoms: O3'_1049  and  P_1050 
REMARK       I    between atoms: P_1050  and  O5'_1053 
REMARK       I    between atoms: O5'_1053  and  C5'_1054 
REMARK       I    between atoms: C5'_1054  and  C4'_1055 
REMARK       I    between atoms: C1'_1057  and  N9_1058 
REMARK       I    between atoms: C2_1061  and  N2_1062 
REMARK   88  A    between atoms: C2'_1072  and  O2'_1073 
REMARK   89  A    between atoms: C3'_1075  and  O3'_1076 
REMARK   90  A    between atoms: O3'_1076  and  P_1077 
REMARK       I    between atoms: P_1077  and  O5'_1080 
REMARK       I    between atoms: O5'_1080  and  C5'_1081 
REMARK       I    between atoms: C5'_1081  and  C4'_1082 
REMARK       I    between atoms: C1'_1084  and  N9_1085 
REMARK       I    between atoms: C6_1090  and  N6_1091 
REMARK       I    between atoms: C2'_1097  and  O2'_1098 
REMARK       I    between atoms: C3'_1100  and  O3'_1101 
REMARK   91  A    between atoms: O3'_1101  and  P_1102 
REMARK   92  A    between atoms: P_1102  and  O5'_1105 
REMARK   93  A    between atoms: O5'_1105  and  C5'_1106 
REMARK   94  A    between atoms: C5'_1106  and  C4'_1107 
REMARK   95  A    between atoms: C1'_1109  and  N1_1110 
REMARK       I    between atoms: C4_1115  and  N4_1116 
REMARK   96  A    between atoms: C2'_1120  and  O2'_1121 
REMARK   97  A    between atoms: C3'_1123  and  O3'_1124 
REMARK   98  A    between atoms: O3'_1124  and  P_1125 
REMARK   99  A    between atoms: P_1125  and  O5'_1128 
REMARK  100  A    between atoms: O5'_1128  and  C5'_1129 
REMARK  101  A    between atoms: C5'_1129  and  C4'_1130 
REMARK       I    between atoms: C1'_1132  and  N9_1133 
REMARK       I    between atoms: C2_1136  and  N2_1137 
REMARK       I    between atoms: C2'_1147  and  O2'_1148 
REMARK       I    between atoms: C3'_1150  and  O3'_1151 
REMARK       I    between atoms: O3'_1151  and  P_1152 
REMARK       I    between atoms: P_1152  and  O5'_1155 
REMARK       I    between atoms: O5'_1155  and  C5'_1156 
REMARK       I    between atoms: C5'_1156  and  C4'_1157 
REMARK       I    between atoms: C1'_1159  and  N9_1160 
REMARK       I    between atoms: C6_1165  and  N6_1166 
REMARK       I    between atoms: C2'_1172  and  O2'_1173 
REMARK       I    between atoms: C3'_1175  and  O3'_1176 
REMARK       I    between atoms: O3'_1176  and  P_1177 
REMARK       I    between atoms: P_1177  and  O5'_1180 
REMARK       I    between atoms: O5'_1180  and  C5'_1181 
REMARK       I    between atoms: C5'_1181  and  C4'_1182 
REMARK       I    between atoms: C1'_1184  and  N9_1185 
REMARK       I    between atoms: C2_1188  and  N2_1189 
REMARK       I    between atoms: C2'_1199  and  O2'_1200 
REMARK       I    between atoms: C3'_1202  and  O3'_1203 
REMARK       I    between atoms: O3'_1203  and  P_1204 
REMARK       I    between atoms: P_1204  and  O5'_1207 
REMARK       I    between atoms: O5'_1207  and  C5'_1208 
REMARK       I    between atoms: C5'_1208  and  C4'_1209 
REMARK       I    between atoms: C1'_1211  and  N1_1212 
REMARK       I    between atoms: C4_1217  and  N4_1218 
REMARK       I    between atoms: C2'_1222  and  O2'_1223 
REMARK       I    between atoms: C3'_1225  and  O3'_1226 
REMARK       I    between atoms: O3'_1226  and  P_1227 
REMARK       I    between atoms: P_1227  and  O5'_1230 
REMARK       I    between atoms: O5'_1230  and  C5'_1231 
REMARK       I    between atoms: C5'_1231  and  C4'_1232 
REMARK       I    between atoms: C1'_1234  and  N1_1235 
REMARK       I    between atoms: C4_1240  and  N4_1241 
REMARK       I    between atoms: C2'_1245  and  O2'_1246 
REMARK       I    between atoms: C3'_1248  and  O3'_1249 
REMARK       I    between atoms: O3'_1249  and  P_1250 
REMARK       I    between atoms: P_1250  and  O5'_1253 
REMARK       I    between atoms: O5'_1253  and  C5'_1254 
REMARK       I    between atoms: C5'_1254  and  C4'_1255 
REMARK       I    between atoms: C1'_1257  and  N1_1258 
REMARK       I    between atoms: C4_1263  and  N4_1264 
REMARK       I    between atoms: C2'_1268  and  O2'_1269 
REMARK       I    between atoms: C3'_1271  and  O3'_1272 
ROOT
ATOM      1 'HO5   G A   1     -42.988   0.147  50.574  1.00  0.00     0.209 HD
ATOM      2  O5'   G A   1     -43.314  -0.573  51.119  1.00  0.00    -0.398 OA
ATOM      3  C5'   G A   1     -44.740  -0.576  51.001  1.00  0.00     0.198 C 
ATOM      4  C4'   G A   1     -45.188   0.315  49.867  1.00  0.00     0.180 C 
ATOM      5  O4'   G A   1     -44.890   1.697  50.213  1.00  0.00    -0.353 OA
ATOM      6  C1'   G A   1     -44.328   2.361  49.096  1.00  0.00     0.262 C 
ATOM      7  N9    G A   1     -42.923   2.638  49.383  1.00  0.00    -0.293 N 
ATOM      8  C4    G A   1     -42.015   3.220  48.532  1.00  0.00     0.187 A 
ATOM      9  N3    G A   1     -42.265   3.645  47.276  1.00  0.00    -0.044 NA
ATOM     10  C2    G A   1     -41.190   4.159  46.707  1.00  0.00     0.703 A 
ATOM     11  N2    G A   1     -41.260   4.628  45.459  1.00  0.00    -0.233 N 
ATOM     12  H21   G A   1     -42.137   4.586  44.963  1.00  0.00     0.174 HD
ATOM     13  H22   G A   1     -40.441   5.022  45.016  1.00  0.00     0.174 HD
ATOM     14  N1    G A   1     -39.966   4.249  47.318  1.00  0.00    -0.153 N 
ATOM     15  H1    G A   1     -39.212   4.660  46.791  1.00  0.00     0.187 HD
ATOM     16  C6    G A   1     -39.684   3.821  48.609  1.00  0.00     0.292 A 
ATOM     17  O6    G A   1     -38.540   3.952  49.065  1.00  0.00    -0.265 OA
ATOM     18  C5    G A   1     -40.830   3.264  49.236  1.00  0.00     0.173 A 
ATOM     19  N7    G A   1     -40.989   2.724  50.505  1.00  0.00    -0.234 NA
ATOM     20  C8    G A   1     -42.244   2.368  50.546  1.00  0.00     0.214 A 
ATOM     21  C2'   G A   1     -44.541   1.456  47.884  1.00  0.00     0.199 C 
ATOM     22  C3'   G A   1     -44.482   0.081  48.537  1.00  0.00     0.198 C 
ENDROOT
BRANCH  22  23
ATOM     23  O3'   G A   1     -45.142  -0.919  47.764  1.00  0.00    -0.279 OA
BRANCH  23  24
ATOM     24  P     G A   2     -46.710  -1.200  47.988  1.00  0.00     0.408 P 
ATOM     25  OP2   G A   2     -46.874  -2.595  48.471  1.00  0.00    -0.624 OA
ATOM     26  OP1   G A   2     -47.245  -0.076  48.797  1.00  0.00    -0.624 OA
BRANCH  24  27
ATOM     27  O5'   G A   2     -47.332  -1.101  46.525  1.00  0.00    -0.287 OA
ATOM     28  C5'   G A   2     -48.279  -2.063  46.064  1.00  0.00     0.216 C 
ATOM     29  C4'   G A   2     -48.645  -1.787  44.624  1.00  0.00     0.180 C 
ATOM     30  C3'   G A   2     -47.475  -1.569  43.676  1.00  0.00     0.198 C 
ATOM     31  O4'   G A   2     -49.391  -0.543  44.551  1.00  0.00    -0.353 OA
ATOM     32  C2'   G A   2     -48.117  -0.761  42.554  1.00  0.00     0.199 C 
ATOM     33  O3'   G A   2     -46.930  -2.804  43.217  1.00  0.00    -0.279 OA
ATOM     34  O2'   G A   2     -48.873  -1.592  41.693  1.00  0.00    -0.388 OA
ATOM     35  C1'   G A   2     -49.076   0.129  43.343  1.00  0.00     0.262 C 
ATOM     36 'HO2   G A   2     -48.524  -2.479  41.790  1.00  0.00     0.210 HD
ATOM     37  N9    G A   2     -48.519   1.437  43.675  1.00  0.00    -0.293 N 
ATOM     38  C8    G A   2     -48.130   1.886  44.913  1.00  0.00     0.214 A 
ATOM     39  C4    G A   2     -48.280   2.467  42.797  1.00  0.00     0.187 A 
ATOM     40  N7    G A   2     -47.671   3.107  44.898  1.00  0.00    -0.234 NA
ATOM     41  C5    G A   2     -47.760   3.489  43.565  1.00  0.00     0.173 A 
ATOM     42  C6    G A   2     -47.408   4.708  42.930  1.00  0.00     0.292 A 
ATOM     43  O6    G A   2     -46.934   5.733  43.434  1.00  0.00    -0.265 OA
ATOM     44  N1    G A   2     -47.660   4.664  41.564  1.00  0.00    -0.153 N 
ATOM     45  H1    G A   2     -47.440   5.486  41.025  1.00  0.00     0.187 HD
ATOM     46  C2    G A   2     -48.184   3.589  40.894  1.00  0.00     0.703 A 
ATOM     47  N2    G A   2     -48.352   3.740  39.578  1.00  0.00    -0.233 N 
ATOM     48  N3    G A   2     -48.517   2.449  41.470  1.00  0.00    -0.044 NA
ATOM     49  H22   G A   2     -48.099   4.610  39.128  1.00  0.00     0.174 HD
ATOM     50  H21   G A   2     -48.733   2.979  39.036  1.00  0.00     0.174 HD
ATOM     51  P     C A   3     -45.387  -2.880  42.769  1.00  0.00     0.408 P 
ATOM     52  OP2   C A   3     -44.554  -2.285  43.844  1.00  0.00    -0.624 OA
ATOM     53  O5'   C A   3     -45.308  -1.926  41.494  1.00  0.00    -0.287 OA
ATOM     54  OP1   C A   3     -45.124  -4.271  42.322  1.00  0.00    -0.624 OA
ATOM     55  C5'   C A   3     -46.047  -2.222  40.311  1.00  0.00     0.216 C 
ATOM     56  C4'   C A   3     -45.721  -1.222  39.226  1.00  0.00     0.180 C 
ATOM     57  C3'   C A   3     -44.254  -0.844  39.089  1.00  0.00     0.198 C 
ATOM     58  O4'   C A   3     -46.371   0.043  39.527  1.00  0.00    -0.353 OA
ATOM     59  O3'   C A   3     -43.517  -1.807  38.341  1.00  0.00    -0.279 OA
ATOM     60  C2'   C A   3     -44.341   0.502  38.382  1.00  0.00     0.199 C 
ATOM     61  P     T A   4     -41.923  -1.907  38.522  1.00  0.00     0.408 P 
ATOM     62  O5'   T A   4     -41.380  -0.537  37.915  1.00  0.00    -0.287 OA
ATOM     63  OP1   T A   4     -41.447  -3.018  37.659  1.00  0.00    -0.624 OA
ATOM     64  OP2   T A   4     -41.615  -1.923  39.976  1.00  0.00    -0.624 OA
ATOM     65  C5'   T A   4     -41.351  -0.321  36.505  1.00  0.00     0.216 C 
ATOM     66  C4'   T A   4     -41.114   1.142  36.200  1.00  0.00     0.180 C 
ATOM     67  C3'   T A   4     -39.706   1.655  36.452  1.00  0.00     0.198 C 
ATOM     68  O4'   T A   4     -41.922   1.969  37.077  1.00  0.00    -0.353 OA
ATOM     69  C2'   T A   4     -39.930   3.161  36.542  1.00  0.00     0.199 C 
ATOM     70  O2'   T A   4     -40.072   3.735  35.256  1.00  0.00    -0.388 OA
ATOM     71  C1'   T A   4     -41.284   3.223  37.254  1.00  0.00     0.264 C 
ATOM     72 'HO2   T A   4     -39.395   3.348  34.701  1.00  0.00     0.210 HD
ATOM     73  N1    T A   4     -41.172   3.495  38.695  1.00  0.00    -0.280 N 
ATOM     74  C2    T A   4     -40.849   4.784  39.081  1.00  0.00     0.331 A 
ATOM     75  C6    T A   4     -41.377   2.506  39.631  1.00  0.00     0.104 A 
ATOM     76  O2    T A   4     -40.662   5.687  38.286  1.00  0.00    -0.246 OA
ATOM     77  N3    T A   4     -40.752   4.978  40.434  1.00  0.00    -0.275 N 
ATOM     78  H3    T A   4     -40.515   5.912  40.735  1.00  0.00     0.173 HD
ATOM     79  C4    T A   4     -40.943   4.039  41.421  1.00  0.00     0.250 A 
ATOM     80  C5    T A   4     -41.277   2.733  40.945  1.00  0.00     0.092 A 
ATOM     81  O4    T A   4     -40.817   4.370  42.600  1.00  0.00    -0.268 OA
ATOM     82  C1'   C A   3     -45.556   1.114  39.078  1.00  0.00     0.264 C 
ATOM     83  O2'   C A   3     -44.637   0.344  37.007  1.00  0.00    -0.388 OA
ATOM     84  N1    C A   3     -45.203   1.954  40.234  1.00  0.00    -0.278 N 
ATOM     85  C2    C A   3     -44.830   3.280  40.012  1.00  0.00     0.352 A 
ATOM     86  C6    C A   3     -45.234   1.451  41.506  1.00  0.00     0.102 A 
ATOM     87  N3    C A   3     -44.497   4.061  41.062  1.00  0.00    -0.177 NA
ATOM     88  O2    C A   3     -44.813   3.711  38.851  1.00  0.00    -0.244 OA
ATOM     89  C4    C A   3     -44.529   3.562  42.299  1.00  0.00     0.128 A 
ATOM     90  N4    C A   3     -44.193   4.371  43.302  1.00  0.00    -0.384 N 
ATOM     91  C5    C A   3     -44.908   2.213  42.559  1.00  0.00     0.067 A 
ATOM     92  H41   C A   3     -44.204   4.036  44.254  1.00  0.00     0.157 HD
ATOM     93  H42   C A   3     -43.927   5.326  43.104  1.00  0.00     0.157 HD
ATOM     94 'HO2   C A   3     -44.142  -0.415  36.702  1.00  0.00     0.210 HD
BRANCH  67  95
ATOM     95  O3'   T A   4     -38.812   1.295  35.402  1.00  0.00    -0.279 OA
BRANCH  95  96
ATOM     96  P     C A   5     -37.347   0.734  35.756  1.00  0.00     0.408 P 
ATOM     97  OP1   C A   5     -36.473   1.009  34.587  1.00  0.00    -0.624 OA
ATOM     98  OP2   C A   5     -37.483  -0.657  36.259  1.00  0.00    -0.624 OA
BRANCH  96  99
ATOM     99  O5'   C A   5     -36.864   1.653  36.966  1.00  0.00    -0.287 OA
BRANCH  99 100
ATOM    100  C5'   C A   5     -36.221   2.903  36.726  1.00  0.00     0.216 C 
BRANCH 100 101
ATOM    101  C4'   C A   5     -36.359   3.803  37.933  1.00  0.00     0.180 C 
ATOM    102  C3'   C A   5     -35.231   3.726  38.949  1.00  0.00     0.198 C 
ATOM    103  C2'   C A   5     -35.892   4.270  40.212  1.00  0.00     0.199 C 
ATOM    104  C1'   C A   5     -37.322   3.742  40.064  1.00  0.00     0.264 C 
ATOM    105  O4'   C A   5     -37.524   3.408  38.701  1.00  0.00    -0.353 OA
BRANCH 102 106
ATOM    106  O3'   C A   5     -34.103   4.498  38.549  1.00  0.00    -0.279 OA
BRANCH 106 107
ATOM    107  P     G A   6     -34.268   5.624  37.411  1.00  0.00     0.408 P 
ATOM    108  OP1   G A   6     -35.643   6.174  37.534  1.00  0.00    -0.624 OA
ATOM    109  OP2   G A   6     -33.820   5.053  36.115  1.00  0.00    -0.624 OA
BRANCH 107 110
ATOM    110  O5'   G A   6     -33.236   6.762  37.838  1.00  0.00    -0.287 OA
BRANCH 110 111
ATOM    111  C5'   G A   6     -32.550   6.701  39.086  1.00  0.00     0.216 C 
BRANCH 111 112
ATOM    112  C4'   G A   6     -31.055   6.752  38.868  1.00  0.00     0.180 C 
ATOM    113  C3'   G A   6     -30.245   7.381  39.991  1.00  0.00     0.198 C 
ATOM    114  C2'   G A   6     -28.976   7.812  39.267  1.00  0.00     0.199 C 
ATOM    115  C1'   G A   6     -29.545   8.282  37.928  1.00  0.00     0.262 C 
ATOM    116  O4'   G A   6     -30.765   7.590  37.716  1.00  0.00    -0.353 OA
BRANCH 113 117
ATOM    117  O3'   G A   6     -29.987   6.451  41.039  1.00  0.00    -0.279 OA
ATOM    118  P     T A   7     -28.771   5.406  40.902  1.00  0.00     0.408 P 
ATOM    119  OP1   T A   7     -28.688   4.650  42.178  1.00  0.00    -0.624 OA
ATOM    120  OP2   T A   7     -27.576   6.133  40.401  1.00  0.00    -0.624 OA
ATOM    121  O5'   T A   7     -29.250   4.402  39.761  1.00  0.00    -0.287 OA
ATOM    122  C5'   T A   7     -30.359   3.527  39.971  1.00  0.00     0.216 C 
ATOM    123  C4'   T A   7     -30.787   2.904  38.663  1.00  0.00     0.180 C 
ATOM    124  C3'   T A   7     -29.749   2.022  37.986  1.00  0.00     0.198 C 
ATOM    125  O4'   T A   7     -31.041   3.953  37.696  1.00  0.00    -0.353 OA
ATOM    126  O3'   T A   7     -29.765   0.700  38.518  1.00  0.00    -0.279 OA
ATOM    127  C2'   T A   7     -30.174   2.065  36.521  1.00  0.00     0.199 C 
ATOM    128  P     T A   8     -28.509  -0.276  38.277  1.00  0.00     0.408 P 
ATOM    129  OP2   T A   8     -27.324   0.556  37.946  1.00  0.00    -0.624 OA
ATOM    130  OP1   T A   8     -28.450  -1.213  39.427  1.00  0.00    -0.624 OA
ATOM    131  O5'   T A   8     -28.911  -1.106  36.977  1.00  0.00    -0.287 OA
ATOM    132  C5'   T A   8     -29.949  -2.083  37.015  1.00  0.00     0.216 C 
ATOM    133  C4'   T A   8     -29.976  -2.864  35.720  1.00  0.00     0.180 C 
ATOM    134  C3'   T A   8     -28.629  -3.424  35.276  1.00  0.00     0.198 C 
ATOM    135  O4'   T A   8     -30.387  -1.971  34.647  1.00  0.00    -0.353 OA
ATOM    136  C2'   T A   8     -28.757  -3.441  33.758  1.00  0.00     0.199 C 
ATOM    137  O3'   T A   8     -28.397  -4.724  35.811  1.00  0.00    -0.279 OA
ATOM    138  O2'   T A   8     -29.523  -4.549  33.323  1.00  0.00    -0.388 OA
ATOM    139  C1'   T A   8     -29.557  -2.163  33.517  1.00  0.00     0.264 C 
ATOM    140 'HO2   T A   8     -29.547  -5.167  34.054  1.00  0.00     0.210 HD
ATOM    141  N1    T A   8     -28.721  -0.966  33.344  1.00  0.00    -0.280 N 
ATOM    142  C2    T A   8     -28.335  -0.626  32.060  1.00  0.00     0.331 A 
ATOM    143  C6    T A   8     -28.332  -0.209  34.424  1.00  0.00     0.104 A 
ATOM    144  O2    T A   8     -28.660  -1.267  31.077  1.00  0.00    -0.246 OA
ATOM    145  N3    T A   8     -27.553   0.497  31.968  1.00  0.00    -0.275 N 
ATOM    146  H3    T A   8     -27.257   0.762  31.043  1.00  0.00     0.173 HD
ATOM    147  C4    T A   8     -27.128   1.297  33.005  1.00  0.00     0.250 A 
ATOM    148  C5    T A   8     -27.569   0.879  34.296  1.00  0.00     0.092 A 
ATOM    149  O4    T A   8     -26.430   2.281  32.762  1.00  0.00    -0.268 OA
ATOM    150  O2'   T A   7     -31.221   1.149  36.265  1.00  0.00    -0.388 OA
ATOM    151  C1'   T A   7     -30.728   3.486  36.396  1.00  0.00     0.264 C 
ATOM    152 'HO2   T A   7     -31.156   0.454  36.922  1.00  0.00     0.210 HD
ATOM    153  N1    T A   7     -29.790   4.433  35.777  1.00  0.00    -0.280 N 
ATOM    154  C6    T A   7     -29.098   5.356  36.530  1.00  0.00     0.104 A 
ATOM    155  C2    T A   7     -29.624   4.368  34.406  1.00  0.00     0.331 A 
ATOM    156  C5    T A   7     -28.248   6.230  35.985  1.00  0.00     0.092 A 
ATOM    157  C4    T A   7     -28.026   6.227  34.574  1.00  0.00     0.250 A 
ATOM    158  N3    T A   7     -28.743   5.278  33.884  1.00  0.00    -0.275 N 
ATOM    159  O4    T A   7     -27.273   6.980  33.958  1.00  0.00    -0.268 OA
ATOM    160  H3    T A   7     -28.607   5.240  32.885  1.00  0.00     0.173 HD
ATOM    161  O2    T A   7     -30.212   3.565  33.705  1.00  0.00    -0.246 OA
BRANCH 137 162
ATOM    162  P     G A   9     -26.903  -5.166  36.214  1.00  0.00     0.408 P 
ATOM    163  OP2   G A   9     -26.733  -4.946  37.673  1.00  0.00    -0.624 OA
ATOM    164  OP1   G A   9     -26.676  -6.519  35.645  1.00  0.00    -0.624 OA
BRANCH 162 165
ATOM    165  O5'   G A   9     -25.969  -4.134  35.439  1.00  0.00    -0.287 OA
BRANCH 165 166
ATOM    166  C5'   G A   9     -25.205  -4.540  34.305  1.00  0.00     0.216 C 
ATOM    167  C4'   G A   9     -23.765  -4.104  34.457  1.00  0.00     0.180 C 
ATOM    168  C3'   G A   9     -23.016  -4.706  35.639  1.00  0.00     0.198 C 
ATOM    169  O4'   G A   9     -23.731  -2.670  34.698  1.00  0.00    -0.353 OA
ATOM    170  O3'   G A   9     -22.453  -5.975  35.313  1.00  0.00    -0.279 OA
ATOM    171  C2'   G A   9     -21.947  -3.655  35.922  1.00  0.00     0.199 C 
ATOM    172  P     G A  10     -22.165  -7.046  36.480  1.00  0.00     0.408 P 
ATOM    173  OP1   G A  10     -21.657  -8.279  35.826  1.00  0.00    -0.624 OA
ATOM    174  OP2   G A  10     -23.362  -7.122  37.357  1.00  0.00    -0.624 OA
ATOM    175  O5'   G A  10     -20.971  -6.404  37.316  1.00  0.00    -0.287 OA
ATOM    176  C5'   G A  10     -19.718  -6.102  36.700  1.00  0.00     0.216 C 
ATOM    177  C4'   G A  10     -18.814  -5.388  37.678  1.00  0.00     0.180 C 
ATOM    178  O4'   G A  10     -19.573  -4.323  38.324  1.00  0.00    -0.353 OA
ATOM    179  C3'   G A  10     -18.268  -6.256  38.811  1.00  0.00     0.198 C 
ATOM    180  C1'   G A  10     -19.486  -4.467  39.724  1.00  0.00     0.262 C 
ATOM    181  C2'   G A  10     -19.205  -5.945  39.973  1.00  0.00     0.199 C 
ATOM    182  N9    G A  10     -20.724  -3.978  40.324  1.00  0.00    -0.293 N 
ATOM    183  C8    G A  10     -21.992  -4.068  39.805  1.00  0.00     0.214 A 
ATOM    184  C4    G A  10     -20.844  -3.338  41.533  1.00  0.00     0.187 A 
ATOM    185  N7    G A  10     -22.903  -3.545  40.581  1.00  0.00    -0.234 NA
ATOM    186  C5    G A  10     -22.191  -3.080  41.679  1.00  0.00     0.173 A 
ATOM    187  C6    G A  10     -22.636  -2.416  42.854  1.00  0.00     0.292 A 
ATOM    188  O6    G A  10     -23.787  -2.095  43.172  1.00  0.00    -0.265 OA
ATOM    189  N1    G A  10     -21.578  -2.126  43.707  1.00  0.00    -0.153 N 
ATOM    190  H1    G A  10     -21.796  -1.656  44.572  1.00  0.00     0.187 HD
ATOM    191  C2    G A  10     -20.263  -2.427  43.462  1.00  0.00     0.703 A 
ATOM    192  N3    G A  10     -19.834  -3.042  42.376  1.00  0.00    -0.044 NA
ATOM    193  N2    G A  10     -19.389  -2.059  44.402  1.00  0.00    -0.233 N 
ATOM    194  H22   G A  10     -19.709  -1.592  45.240  1.00  0.00     0.174 HD
ATOM    195  H21   G A  10     -18.407  -2.254  44.273  1.00  0.00     0.174 HD
ATOM    196  O2'   G A   9     -20.875  -3.755  35.001  1.00  0.00    -0.388 OA
ATOM    197  C1'   G A   9     -22.717  -2.365  35.638  1.00  0.00     0.262 C 
ATOM    198 'HO2   G A   9     -20.963  -4.604  34.570  1.00  0.00     0.210 HD
BRANCH 181 199
ATOM    199  O2'   G A  10     -18.544  -6.084  41.217  1.00  0.00    -0.388 OA
ATOM    200 'HO2   G A  10     -18.589  -5.230  41.650  1.00  0.00     0.210 HD
ENDBRANCH 181 199
BRANCH 179 201
ATOM    201  O3'   G A  10     -16.915  -5.923  39.113  1.00  0.00    -0.279 OA
BRANCH 201 202
ATOM    202  P     T A  11     -15.851  -5.742  37.921  1.00  0.00     0.408 P 
ATOM    203  OP2   T A  11     -16.411  -6.368  36.695  1.00  0.00    -0.624 OA
ATOM    204  OP1   T A  11     -15.444  -4.316  37.893  1.00  0.00    -0.624 OA
BRANCH 202 205
ATOM    205  O5'   T A  11     -14.599  -6.611  38.387  1.00  0.00    -0.287 OA
BRANCH 205 206
ATOM    206  C5'   T A  11     -14.258  -7.833  37.733  1.00  0.00     0.216 C 
BRANCH 206 207
ATOM    207  C4'   T A  11     -12.780  -8.110  37.886  1.00  0.00     0.180 C 
ATOM    208  O4'   T A  11     -12.464  -9.368  37.217  1.00  0.00    -0.353 OA
ATOM    209  C1'   T A  11     -11.296  -9.212  36.432  1.00  0.00     0.264 C 
ATOM    210  C2'   T A  11     -10.630  -7.920  36.899  1.00  0.00     0.199 C 
ATOM    211  N1    T A  11     -11.685  -9.198  35.013  1.00  0.00    -0.280 N 
ATOM    212  O2'   T A  11      -9.855  -8.194  38.051  1.00  0.00    -0.388 OA
ATOM    213  C3'   T A  11     -11.853  -7.083  37.244  1.00  0.00     0.198 C 
ATOM    214 'HO2   T A  11      -9.945  -7.437  38.630  1.00  0.00     0.210 HD
ATOM    215  O3'   T A  11     -11.551  -6.016  38.137  1.00  0.00    -0.279 OA
ATOM    216  P     C A  12     -11.420  -4.514  37.573  1.00  0.00     0.408 P 
ATOM    217  O5'   C A  12     -10.039  -4.520  36.779  1.00  0.00    -0.287 OA
ATOM    218  OP2   C A  12     -12.513  -4.281  36.595  1.00  0.00    -0.624 OA
ATOM    219  OP1   C A  12     -11.278  -3.611  38.744  1.00  0.00    -0.624 OA
ATOM    220  C5'   C A  12      -8.792  -4.562  37.471  1.00  0.00     0.216 C 
ATOM    221  C4'   C A  12      -7.653  -4.720  36.490  1.00  0.00     0.180 C 
ATOM    222  O4'   C A  12      -7.881  -5.911  35.687  1.00  0.00    -0.353 OA
ATOM    223  C3'   C A  12      -7.507  -3.601  35.469  1.00  0.00     0.198 C 
ATOM    224  C1'   C A  12      -7.466  -5.674  34.353  1.00  0.00     0.264 C 
ATOM    225  C2'   C A  12      -6.795  -4.302  34.320  1.00  0.00     0.199 C 
ATOM    226  N1    C A  12      -8.642  -5.775  33.472  1.00  0.00    -0.278 N 
ATOM    227  C6    C A  12      -9.907  -5.795  33.991  1.00  0.00     0.102 A 
ATOM    228  C2    C A  12      -8.446  -5.849  32.089  1.00  0.00     0.352 A 
ATOM    229  C5    C A  12     -10.979  -5.891  33.195  1.00  0.00     0.067 A 
ATOM    230  C4    C A  12     -10.748  -5.968  31.790  1.00  0.00     0.128 A 
ATOM    231  N3    C A  12      -9.519  -5.945  31.273  1.00  0.00    -0.177 NA
ATOM    232  N4    C A  12     -11.775  -6.066  30.947  1.00  0.00    -0.384 N 
ATOM    233  H42   C A  12     -11.604  -6.121  29.953  1.00  0.00     0.157 HD
ATOM    234  H41   C A  12     -12.722  -6.087  31.298  1.00  0.00     0.157 HD
ATOM    235  O2    C A  12      -7.289  -5.824  31.643  1.00  0.00    -0.244 OA
ATOM    236  C6    T A  11     -13.008  -9.242  34.634  1.00  0.00     0.104 A 
ATOM    237  C2    T A  11     -10.677  -9.134  34.069  1.00  0.00     0.331 A 
ATOM    238  C5    T A  11     -13.386  -9.211  33.353  1.00  0.00     0.092 A 
ATOM    239  C4    T A  11     -12.405  -9.133  32.320  1.00  0.00     0.250 A 
ATOM    240  N3    T A  11     -11.104  -9.104  32.767  1.00  0.00    -0.275 N 
ATOM    241  O4    T A  11     -12.629  -9.063  31.112  1.00  0.00    -0.268 OA
ATOM    242  H3    T A  11     -10.385  -9.055  32.059  1.00  0.00     0.173 HD
ATOM    243  O2    T A  11      -9.497  -9.105  34.361  1.00  0.00    -0.246 OA
BRANCH 225 244
ATOM    244  O2'   C A  12      -5.415  -4.465  34.592  1.00  0.00    -0.388 OA
ATOM    245 'HO2   C A  12      -5.333  -5.217  35.178  1.00  0.00     0.210 HD
ENDBRANCH 225 244
BRANCH 223 246
ATOM    246  O3'   C A  12      -6.755  -2.506  35.986  1.00  0.00    -0.279 OA
BRANCH 246 247
ATOM    247  P     T A  13      -7.328  -1.008  35.852  1.00  0.00     0.408 P 
ATOM    248  OP2   T A  13      -6.186  -0.082  35.643  1.00  0.00    -0.624 OA
ATOM    249  OP1   T A  13      -8.433  -1.044  34.861  1.00  0.00    -0.624 OA
BRANCH 247 250
ATOM    250  O5'   T A  13      -7.954  -0.702  37.285  1.00  0.00    -0.287 OA
BRANCH 250 251
ATOM    251  C5'   T A  13      -9.366  -0.605  37.465  1.00  0.00     0.216 C 
BRANCH 251 252
ATOM    252  C4'   T A  13      -9.861   0.748  37.009  1.00  0.00     0.180 C 
ATOM    253  O4'   T A  13     -10.796   0.567  35.909  1.00  0.00    -0.353 OA
ATOM    254  C1'   T A  13     -11.860   1.499  36.029  1.00  0.00     0.264 C 
ATOM    255  C2'   T A  13     -11.496   2.453  37.165  1.00  0.00     0.199 C 
ATOM    256  O2'   T A  13     -10.726   3.517  36.637  1.00  0.00    -0.388 OA
ATOM    257  C3'   T A  13     -10.649   1.543  38.042  1.00  0.00     0.198 C 
ATOM    258 'HO2   T A  13      -9.957   3.607  37.199  1.00  0.00     0.210 HD
ATOM    259  O3'   T A  13      -9.795   2.271  38.920  1.00  0.00    -0.279 OA
ATOM    260  P     C A  14     -10.329   2.708  40.373  1.00  0.00     0.408 P 
ATOM    261  O5'   C A  14     -11.491   3.753  40.060  1.00  0.00    -0.287 OA
ATOM    262  OP1   C A  14      -9.225   3.431  41.053  1.00  0.00    -0.624 OA
ATOM    263  OP2   C A  14     -10.938   1.520  41.024  1.00  0.00    -0.624 OA
ATOM    264  C5'   C A  14     -11.206   4.996  39.422  1.00  0.00     0.216 C 
ATOM    265  C4'   C A  14     -12.478   5.791  39.231  1.00  0.00     0.180 C 
ATOM    266  O4'   C A  14     -13.317   5.130  38.244  1.00  0.00    -0.353 OA
ATOM    267  C3'   C A  14     -13.381   5.904  40.451  1.00  0.00     0.198 C 
ATOM    268  C1'   C A  14     -14.683   5.312  38.585  1.00  0.00     0.264 C 
ATOM    269  C2'   C A  14     -14.727   6.220  39.814  1.00  0.00     0.199 C 
ATOM    270  N1    C A  14     -15.290   3.988  38.810  1.00  0.00    -0.278 N 
ATOM    271  O2'   C A  14     -14.785   7.567  39.383  1.00  0.00    -0.388 OA
ATOM    272 'HO2   C A  14     -14.121   8.043  39.883  1.00  0.00     0.210 HD
ATOM    273  C2    C A  14     -16.672   3.845  38.659  1.00  0.00     0.352 A 
ATOM    274  C6    C A  14     -14.520   2.915  39.162  1.00  0.00     0.102 A 
ATOM    275  O2    C A  14     -17.347   4.833  38.338  1.00  0.00    -0.244 OA
ATOM    276  N3    C A  14     -17.237   2.636  38.865  1.00  0.00    -0.177 NA
ATOM    277  C4    C A  14     -16.477   1.594  39.204  1.00  0.00     0.128 A 
ATOM    278  C5    C A  14     -15.066   1.710  39.364  1.00  0.00     0.067 A 
ATOM    279  N4    C A  14     -17.079   0.420  39.392  1.00  0.00    -0.384 N 
ATOM    280  H42   C A  14     -18.080   0.346  39.280  1.00  0.00     0.157 HD
ATOM    281  H41   C A  14     -16.541  -0.394  39.649  1.00  0.00     0.157 HD
ATOM    282  O3'   C A  14     -12.946   6.923  41.348  1.00  0.00    -0.279 OA
ATOM    283  P     G A  15     -13.385   6.863  42.895  1.00  0.00     0.408 P 
ATOM    284  OP1   G A  15     -12.722   7.998  43.585  1.00  0.00    -0.624 OA
ATOM    285  OP2   G A  15     -13.175   5.479  43.391  1.00  0.00    -0.624 OA
ATOM    286  O5'   G A  15     -14.953   7.148  42.863  1.00  0.00    -0.287 OA
ATOM    287  C5'   G A  15     -15.462   8.383  42.360  1.00  0.00     0.216 C 
ATOM    288  C4'   G A  15     -16.970   8.413  42.474  1.00  0.00     0.180 C 
ATOM    289  O4'   G A  15     -17.550   7.513  41.494  1.00  0.00    -0.353 OA
ATOM    290  C3'   G A  15     -17.550   7.919  43.789  1.00  0.00     0.198 C 
ATOM    291  C1'   G A  15     -18.775   7.003  41.994  1.00  0.00     0.262 C 
ATOM    292  N9    G A  15     -18.713   5.544  41.977  1.00  0.00    -0.293 N 
ATOM    293  C2'   G A  15     -18.983   7.584  43.394  1.00  0.00     0.199 C 
ATOM    294  C8    G A  15     -17.589   4.759  41.910  1.00  0.00     0.214 A 
ATOM    295  C4    G A  15     -19.782   4.683  42.030  1.00  0.00     0.187 A 
ATOM    296  N7    G A  15     -17.852   3.481  41.914  1.00  0.00    -0.234 NA
ATOM    297  C5    G A  15     -19.237   3.418  41.990  1.00  0.00     0.173 A 
ATOM    298  C6    G A  15     -20.108   2.298  42.034  1.00  0.00     0.292 A 
ATOM    299  N1    G A  15     -21.439   2.688  42.110  1.00  0.00    -0.153 N 
ATOM    300  O6    G A  15     -19.820   1.096  42.013  1.00  0.00    -0.265 OA
ATOM    301  H1    G A  15     -22.133   1.958  42.144  1.00  0.00     0.187 HD
ATOM    302  C2    G A  15     -21.878   3.987  42.143  1.00  0.00     0.703 A 
ATOM    303  N3    G A  15     -21.082   5.039  42.105  1.00  0.00    -0.044 NA
ATOM    304  N2    G A  15     -23.200   4.162  42.219  1.00  0.00    -0.233 N 
ATOM    305  H21   G A  15     -23.575   5.099  42.247  1.00  0.00     0.174 HD
ATOM    306  H22   G A  15     -23.818   3.363  42.252  1.00  0.00     0.174 HD
ATOM    307  O2'   G A  15     -19.771   8.754  43.286  1.00  0.00    -0.388 OA
ATOM    308 'HO2   G A  15     -19.318   9.436  43.783  1.00  0.00     0.210 HD
ATOM    309  O3'   G A  15     -17.482   8.910  44.810  1.00  0.00    -0.279 OA
ATOM    310  P     C A  16     -17.494   8.464  46.356  1.00  0.00     0.408 P 
ATOM    311  OP2   C A  16     -16.427   7.453  46.562  1.00  0.00    -0.624 OA
ATOM    312  O5'   C A  16     -18.904   7.742  46.539  1.00  0.00    -0.287 OA
ATOM    313  OP1   C A  16     -17.499   9.703  47.174  1.00  0.00    -0.624 OA
ATOM    314  C5'   C A  16     -20.122   8.478  46.437  1.00  0.00     0.216 C 
ATOM    315  C4'   C A  16     -21.307   7.548  46.564  1.00  0.00     0.180 C 
ATOM    316  O4'   C A  16     -21.309   6.609  45.458  1.00  0.00    -0.353 OA
ATOM    317  C3'   C A  16     -21.317   6.647  47.789  1.00  0.00     0.198 C 
ATOM    318  C1'   C A  16     -21.910   5.394  45.873  1.00  0.00     0.264 C 
ATOM    319  N1    C A  16     -20.980   4.289  45.590  1.00  0.00    -0.278 N 
ATOM    320  C2'   C A  16     -22.261   5.529  47.356  1.00  0.00     0.199 C 
ATOM    321  C2    C A  16     -21.490   2.993  45.475  1.00  0.00     0.352 A 
ATOM    322  C6    C A  16     -19.639   4.517  45.444  1.00  0.00     0.102 A 
ATOM    323  N3    C A  16     -20.646   1.970  45.219  1.00  0.00    -0.177 NA
ATOM    324  O2    C A  16     -22.707   2.811  45.610  1.00  0.00    -0.244 OA
ATOM    325  C4    C A  16     -19.341   2.203  45.074  1.00  0.00     0.128 A 
ATOM    326  C5    C A  16     -18.791   3.513  45.185  1.00  0.00     0.067 A 
ATOM    327  N4    C A  16     -18.550   1.164  44.816  1.00  0.00    -0.384 N 
ATOM    328  H41   C A  16     -17.556   1.296  44.698  1.00  0.00     0.157 HD
ATOM    329  H42   C A  16     -18.948   0.238  44.742  1.00  0.00     0.157 HD
BRANCH 254 330
ATOM    330  N1    T A  13     -13.106   0.754  36.262  1.00  0.00    -0.280 N 
ATOM    331  C6    T A  13     -13.098  -0.472  36.887  1.00  0.00     0.104 A 
ATOM    332  C5    T A  13     -14.215  -1.172  37.104  1.00  0.00     0.092 A 
ATOM    333  C4    T A  13     -15.477  -0.649  36.688  1.00  0.00     0.250 A 
ATOM    334  N3    T A  13     -15.414   0.580  36.075  1.00  0.00    -0.275 N 
ATOM    335  O4    T A  13     -16.570  -1.196  36.832  1.00  0.00    -0.268 OA
ATOM    336  C2    T A  13     -14.290   1.325  35.832  1.00  0.00     0.331 A 
ATOM    337  H3    T A  13     -16.289   0.982  35.772  1.00  0.00     0.173 HD
ATOM    338  O2    T A  13     -14.341   2.408  35.279  1.00  0.00    -0.246 OA
ENDBRANCH 254 330
BRANCH 320 339
ATOM    339  O2'   C A  16     -23.613   5.935  47.465  1.00  0.00    -0.388 OA
ATOM    340 'HO2   C A  16     -23.678   6.794  47.048  1.00  0.00     0.210 HD
ENDBRANCH 320 339
BRANCH 317 341
ATOM    341  O3'   C A  16     -21.779   7.331  48.949  1.00  0.00    -0.279 OA
BRANCH 341 342
ATOM    342  P     T A  17     -20.783   7.559  50.192  1.00  0.00     0.408 P 
ATOM    343  OP2   T A  17     -21.418   6.995  51.410  1.00  0.00    -0.624 OA
ATOM    344  OP1   T A  17     -19.439   7.082  49.777  1.00  0.00    -0.624 OA
BRANCH 342 345
ATOM    345  O5'   T A  17     -20.723   9.143  50.353  1.00  0.00    -0.287 OA
BRANCH 345 346
ATOM    346  C5'   T A  17     -19.662   9.901  49.775  1.00  0.00     0.216 C 
BRANCH 346 347
ATOM    347  C4'   T A  17     -20.052  11.359  49.676  1.00  0.00     0.180 C 
ATOM    348  O4'   T A  17     -19.088  12.161  50.409  1.00  0.00    -0.353 OA
ATOM    349  C1'   T A  17     -18.921  13.412  49.763  1.00  0.00     0.264 C 
ATOM    350  N1    T A  17     -17.500  13.568  49.418  1.00  0.00    -0.280 N 
ATOM    351  C2'   T A  17     -19.856  13.440  48.553  1.00  0.00     0.199 C 
ATOM    352  C2    T A  17     -16.962  14.842  49.457  1.00  0.00     0.331 A 
ATOM    353  C6    T A  17     -16.729  12.484  49.067  1.00  0.00     0.104 A 
ATOM    354  N3    T A  17     -15.635  14.922  49.125  1.00  0.00    -0.275 N 
ATOM    355  O2    T A  17     -17.611  15.827  49.762  1.00  0.00    -0.246 OA
ATOM    356  C4    T A  17     -14.807  13.883  48.770  1.00  0.00     0.250 A 
ATOM    357  H3    T A  17     -15.221  15.844  49.128  1.00  0.00     0.173 HD
ATOM    358  C5    T A  17     -15.436  12.599  48.752  1.00  0.00     0.092 A 
ATOM    359  O4    T A  17     -13.630  14.116  48.496  1.00  0.00    -0.268 OA
ATOM    360  C3'   T A  17     -20.035  11.952  48.275  1.00  0.00     0.198 C 
ATOM    361  O2'   T A  17     -21.081  14.034  48.940  1.00  0.00    -0.388 OA
ATOM    362 'HO2   T A  17     -21.769  13.395  48.754  1.00  0.00     0.210 HD
BRANCH 360 363
ATOM    363  O3'   T A  17     -21.243  11.669  47.572  1.00  0.00    -0.279 OA
BRANCH 363 364
ATOM    364  P     T A  18     -21.357  12.018  46.006  1.00  0.00     0.408 P 
ATOM    365  OP2   T A  18     -21.554  13.483  45.865  1.00  0.00    -0.624 OA
ATOM    366  OP1   T A  18     -20.214  11.361  45.322  1.00  0.00    -0.624 OA
BRANCH 364 367
ATOM    367  O5'   T A  18     -22.699  11.291  45.547  1.00  0.00    -0.287 OA
BRANCH 367 368
ATOM    368  C5'   T A  18     -22.729  10.474  44.377  1.00  0.00     0.216 C 
ATOM    369  C4'   T A  18     -23.998   9.655  44.348  1.00  0.00     0.180 C 
ATOM    370  C3'   T A  18     -25.281  10.431  44.612  1.00  0.00     0.198 C 
ATOM    371  O4'   T A  18     -23.944   8.668  45.412  1.00  0.00    -0.353 OA
ATOM    372  C2'   T A  18     -26.209   9.358  45.169  1.00  0.00     0.199 C 
ATOM    373  O3'   T A  18     -25.790  11.022  43.419  1.00  0.00    -0.279 OA
ATOM    374  C1'   T A  18     -25.233   8.503  45.978  1.00  0.00     0.264 C 
ATOM    375  O2'   T A  18     -26.756   8.566  44.131  1.00  0.00    -0.388 OA
ATOM    376  N1    T A  18     -25.163   8.871  47.399  1.00  0.00    -0.280 N 
ATOM    377  C6    T A  18     -24.505  10.009  47.811  1.00  0.00     0.104 A 
ATOM    378  C2    T A  18     -25.785   8.039  48.312  1.00  0.00     0.331 A 
ATOM    379  C5    T A  18     -24.437  10.370  49.094  1.00  0.00     0.092 A 
ATOM    380  C4    T A  18     -25.059   9.565  50.098  1.00  0.00     0.250 A 
ATOM    381  O4    T A  18     -25.065   9.793  51.307  1.00  0.00    -0.268 OA
ATOM    382  N3    T A  18     -25.695   8.442  49.619  1.00  0.00    -0.275 N 
ATOM    383  H3    T A  18     -26.146   7.851  50.302  1.00  0.00     0.173 HD
ATOM    384  O2    T A  18     -26.370   7.021  47.989  1.00  0.00    -0.246 OA
ATOM    385 'HO2   T A  18     -26.627   9.051  43.316  1.00  0.00     0.210 HD
ATOM    386  P     T A  19     -25.469  12.564  43.088  1.00  0.00     0.408 P 
ATOM    387  O5'   T A  19     -26.876  13.292  43.260  1.00  0.00    -0.287 OA
ATOM    388  OP2   T A  19     -24.540  13.101  44.115  1.00  0.00    -0.624 OA
ATOM    389  OP1   T A  19     -25.095  12.636  41.653  1.00  0.00    -0.624 OA
ATOM    390  C5'   T A  19     -27.607  13.204  44.484  1.00  0.00     0.216 C 
ATOM    391  C4'   T A  19     -29.011  12.709  44.219  1.00  0.00     0.180 C 
ATOM    392  O4'   T A  19     -29.707  13.703  43.415  1.00  0.00    -0.353 OA
ATOM    393  C3'   T A  19     -29.106  11.406  43.430  1.00  0.00     0.198 C 
ATOM    394  C1'   T A  19     -30.055  13.146  42.163  1.00  0.00     0.264 C 
ATOM    395  N1    T A  19     -29.843  14.166  41.126  1.00  0.00    -0.280 N 
ATOM    396  C2'   T A  19     -29.206  11.891  41.989  1.00  0.00     0.199 C 
ATOM    397  C2    T A  19     -30.913  14.495  40.315  1.00  0.00     0.331 A 
ATOM    398  C6    T A  19     -28.619  14.775  40.966  1.00  0.00     0.104 A 
ATOM    399  O2    T A  19     -32.011  13.981  40.426  1.00  0.00    -0.246 OA
ATOM    400  N3    T A  19     -30.650  15.451  39.367  1.00  0.00    -0.275 N 
ATOM    401  H3    T A  19     -31.417  15.706  38.765  1.00  0.00     0.173 HD
ATOM    402  C4    T A  19     -29.455  16.097  39.152  1.00  0.00     0.250 A 
ATOM    403  C5    T A  19     -28.399  15.703  40.031  1.00  0.00     0.092 A 
ATOM    404  O4    T A  19     -29.377  16.938  38.257  1.00  0.00    -0.268 OA
ATOM    405  O2'   T A  19     -29.916  10.967  41.184  1.00  0.00    -0.388 OA
ATOM    406 'HO2   T A  19     -30.459  10.447  41.778  1.00  0.00     0.210 HD
ATOM    407  O3'   T A  19     -30.248  10.645  43.816  1.00  0.00    -0.279 OA
ATOM    408  P     G A  20     -30.066   9.341  44.740  1.00  0.00     0.408 P 
ATOM    409  O5'   G A  20     -31.549   8.992  45.208  1.00  0.00    -0.287 OA
ATOM    410  OP1   G A  20     -29.290   9.747  45.939  1.00  0.00    -0.624 OA
ATOM    411  OP2   G A  20     -29.573   8.232  43.884  1.00  0.00    -0.624 OA
ATOM    412  C5'   G A  20     -32.521  10.018  45.402  1.00  0.00     0.216 C 
ATOM    413  C4'   G A  20     -33.680   9.492  46.216  1.00  0.00     0.180 C 
ATOM    414  C3'   G A  20     -33.323   9.026  47.623  1.00  0.00     0.198 C 
ATOM    415  O4'   G A  20     -34.224   8.325  45.540  1.00  0.00    -0.353 OA
ATOM    416  O3'   G A  20     -34.393   9.260  48.537  1.00  0.00    -0.279 OA
ATOM    417  C2'   G A  20     -33.037   7.540  47.437  1.00  0.00     0.199 C 
ATOM    418  P     G A  21     -34.141  10.151  49.852  1.00  0.00     0.408 P 
ATOM    419  OP1   G A  21     -35.038   9.625  50.912  1.00  0.00    -0.624 OA
ATOM    420  O5'   G A  21     -32.634   9.829  50.260  1.00  0.00    -0.287 OA
ATOM    421  OP2   G A  21     -34.225  11.582  49.465  1.00  0.00    -0.624 OA
ATOM    422  C5'   G A  21     -32.246   8.518  50.665  1.00  0.00     0.216 C 
ATOM    423  C4'   G A  21     -31.671   8.549  52.063  1.00  0.00     0.180 C 
ATOM    424  C3'   G A  21     -32.044   7.351  52.936  1.00  0.00     0.198 C 
ATOM    425  O4'   G A  21     -32.188   9.721  52.759  1.00  0.00    -0.353 OA
ATOM    426  C2'   G A  21     -33.221   7.870  53.754  1.00  0.00     0.199 C 
ATOM    427  O3'   G A  21     -30.957   6.947  53.766  1.00  0.00    -0.279 OA
ATOM    428  C1'   G A  21     -32.807   9.322  53.962  1.00  0.00     0.262 C 
ATOM    429  O2'   G A  21     -33.291   7.230  55.014  1.00  0.00    -0.388 OA
ATOM    430  N9    G A  21     -33.905  10.243  54.243  1.00  0.00    -0.293 N 
ATOM    431  C8    G A  21     -35.216  10.121  53.851  1.00  0.00     0.214 A 
ATOM    432  C4    G A  21     -33.823  11.412  54.960  1.00  0.00     0.187 A 
ATOM    433  N7    G A  21     -35.968  11.107  54.256  1.00  0.00    -0.234 NA
ATOM    434  C5    G A  21     -35.100  11.932  54.959  1.00  0.00     0.173 A 
ATOM    435  C6    G A  21     -35.338  13.159  55.633  1.00  0.00     0.292 A 
ATOM    436  O6    G A  21     -36.398  13.785  55.748  1.00  0.00    -0.265 OA
ATOM    437  N1    G A  21     -34.176  13.657  56.213  1.00  0.00    -0.153 N 
ATOM    438  H1    G A  21     -34.253  14.528  56.714  1.00  0.00     0.187 HD
ATOM    439  C2    G A  21     -32.946  13.055  56.154  1.00  0.00     0.703 A 
ATOM    440  N2    G A  21     -31.949  13.690  56.775  1.00  0.00    -0.233 N 
ATOM    441  N3    G A  21     -32.709  11.915  55.532  1.00  0.00    -0.044 NA
ATOM    442  H22   G A  21     -32.113  14.563  57.254  1.00  0.00     0.174 HD
ATOM    443  H21   G A  21     -31.024  13.285  56.758  1.00  0.00     0.174 HD
ATOM    444 'HO2   G A  21     -32.450   6.786  55.139  1.00  0.00     0.210 HD
ATOM    445  P     G A  22     -29.841   5.940  53.191  1.00  0.00     0.408 P 
ATOM    446  OP1   G A  22     -29.301   5.179  54.347  1.00  0.00    -0.624 OA
ATOM    447  O5'   G A  22     -30.662   4.928  52.273  1.00  0.00    -0.287 OA
ATOM    448  OP2   G A  22     -28.914   6.709  52.323  1.00  0.00    -0.624 OA
ATOM    449  C5'   G A  22     -31.607   4.019  52.838  1.00  0.00     0.216 C 
ATOM    450  C4'   G A  22     -32.185   3.134  51.758  1.00  0.00     0.180 C 
ATOM    451  O4'   G A  22     -32.680   3.977  50.680  1.00  0.00    -0.353 OA
ATOM    452  C3'   G A  22     -31.193   2.186  51.097  1.00  0.00     0.198 C 
ATOM    453  C1'   G A  22     -32.308   3.426  49.430  1.00  0.00     0.262 C 
ATOM    454  C2'   G A  22     -31.764   2.023  49.695  1.00  0.00     0.199 C 
ATOM    455  N9    G A  22     -31.341   4.321  48.801  1.00  0.00    -0.293 N 
ATOM    456  O2'   G A  22     -32.843   1.106  49.686  1.00  0.00    -0.388 OA
ATOM    457 'HO2   G A  22     -32.756   0.576  50.479  1.00  0.00     0.210 HD
ATOM    458  C8    G A  22     -30.817   5.476  49.329  1.00  0.00     0.214 A 
ATOM    459  C4    G A  22     -30.775   4.172  47.559  1.00  0.00     0.187 A 
ATOM    460  N7    G A  22     -29.972   6.069  48.531  1.00  0.00    -0.234 NA
ATOM    461  C5    G A  22     -29.936   5.256  47.406  1.00  0.00     0.173 A 
ATOM    462  C6    G A  22     -29.197   5.384  46.201  1.00  0.00     0.292 A 
ATOM    463  O6    G A  22     -28.402   6.270  45.874  1.00  0.00    -0.265 OA
ATOM    464  N1    G A  22     -29.458   4.334  45.328  1.00  0.00    -0.153 N 
ATOM    465  C2    G A  22     -30.318   3.296  45.579  1.00  0.00     0.703 A 
ATOM    466  H1    G A  22     -28.976   4.344  44.444  1.00  0.00     0.187 HD
ATOM    467  N3    G A  22     -31.013   3.164  46.694  1.00  0.00    -0.044 NA
ATOM    468  N2    G A  22     -30.433   2.381  44.613  1.00  0.00    -0.233 N 
ATOM    469  H21   G A  22     -31.052   1.596  44.750  1.00  0.00     0.174 HD
ATOM    470  H22   G A  22     -29.909   2.473  43.757  1.00  0.00     0.174 HD
ATOM    471  O3'   G A  22     -31.115   0.947  51.799  1.00  0.00    -0.279 OA
ATOM    472  P     T A  23     -29.686   0.244  52.023  1.00  0.00     0.408 P 
ATOM    473  O5'   T A  23     -29.109   0.065  50.548  1.00  0.00    -0.287 OA
ATOM    474  OP2   T A  23     -28.806   1.189  52.754  1.00  0.00    -0.624 OA
ATOM    475  OP1   T A  23     -29.941  -1.106  52.585  1.00  0.00    -0.624 OA
ATOM    476  C5'   T A  23     -29.786  -0.743  49.587  1.00  0.00     0.216 C 
ATOM    477  C4'   T A  23     -29.116  -0.618  48.239  1.00  0.00     0.180 C 
ATOM    478  C3'   T A  23     -27.621  -0.904  48.228  1.00  0.00     0.198 C 
ATOM    479  O4'   T A  23     -29.229   0.757  47.781  1.00  0.00    -0.353 OA
ATOM    480  O3'   T A  23     -27.358  -2.297  48.081  1.00  0.00    -0.279 OA
ATOM    481  C2'   T A  23     -27.137  -0.087  47.038  1.00  0.00     0.199 C 
ATOM    482  P     G A  24     -26.317  -3.024  49.069  1.00  0.00     0.408 P 
ATOM    483  OP2   G A  24     -26.516  -2.492  50.442  1.00  0.00    -0.624 OA
ATOM    484  OP1   G A  24     -26.426  -4.485  48.826  1.00  0.00    -0.624 OA
ATOM    485  O5'   G A  24     -24.891  -2.540  48.549  1.00  0.00    -0.287 OA
ATOM    486  C5'   G A  24     -24.530  -2.667  47.175  1.00  0.00     0.216 C 
ATOM    487  C4'   G A  24     -23.303  -1.836  46.879  1.00  0.00     0.180 C 
ATOM    488  O4'   G A  24     -23.663  -0.428  46.905  1.00  0.00    -0.353 OA
ATOM    489  C3'   G A  24     -22.172  -1.947  47.889  1.00  0.00     0.198 C 
ATOM    490  C1'   G A  24     -22.582   0.328  47.427  1.00  0.00     0.262 C 
ATOM    491  C2'   G A  24     -21.423  -0.638  47.678  1.00  0.00     0.199 C 
ATOM    492  N9    G A  24     -23.038   1.017  48.630  1.00  0.00    -0.293 N 
ATOM    493  O2'   G A  24     -20.617  -0.692  46.516  1.00  0.00    -0.388 OA
ATOM    494 'HO2   G A  24     -20.506  -1.619  46.301  1.00  0.00     0.210 HD
ATOM    495  C4    G A  24     -22.370   2.009  49.307  1.00  0.00     0.187 A 
ATOM    496  C8    G A  24     -24.212   0.808  49.312  1.00  0.00     0.214 A 
ATOM    497  C5    G A  24     -23.187   2.346  50.365  1.00  0.00     0.173 A 
ATOM    498  N3    G A  24     -21.167   2.522  48.975  1.00  0.00    -0.044 NA
ATOM    499  C6    G A  24     -22.760   3.362  51.261  1.00  0.00     0.292 A 
ATOM    500  N7    G A  24     -24.346   1.580  50.356  1.00  0.00    -0.234 NA
ATOM    501  O6    G A  24     -23.340   3.807  52.258  1.00  0.00    -0.265 OA
ATOM    502  N1    G A  24     -21.520   3.874  50.900  1.00  0.00    -0.153 N 
ATOM    503  H1    G A  24     -21.133   4.602  51.480  1.00  0.00     0.187 HD
ATOM    504  C2    G A  24     -20.783   3.464  49.817  1.00  0.00     0.703 A 
ATOM    505  N2    G A  24     -19.611   4.077  49.636  1.00  0.00    -0.233 N 
ATOM    506  H22   G A  24     -19.310   4.800  50.276  1.00  0.00     0.174 HD
ATOM    507  H21   G A  24     -19.029   3.814  48.856  1.00  0.00     0.174 HD
ATOM    508  O3'   G A  24     -21.357  -3.090  47.645  1.00  0.00    -0.279 OA
ATOM    509  P     C A  25     -20.568  -3.785  48.862  1.00  0.00     0.408 P 
ATOM    510  OP2   C A  25     -21.499  -3.924  50.012  1.00  0.00    -0.624 OA
ATOM    511  OP1   C A  25     -19.892  -4.989  48.318  1.00  0.00    -0.624 OA
ATOM    512  O5'   C A  25     -19.450  -2.721  49.255  1.00  0.00    -0.287 OA
ATOM    513  C5'   C A  25     -18.457  -2.319  48.312  1.00  0.00     0.216 C 
ATOM    514  C1'   T A  23     -28.021   1.154  47.153  1.00  0.00     0.264 C 
ATOM    515  O2'   T A  23     -27.428  -0.740  45.816  1.00  0.00    -0.388 OA
ATOM    516  N1    T A  23     -27.420   2.237  47.946  1.00  0.00    -0.280 N 
ATOM    517  C6    T A  23     -27.426   2.202  49.323  1.00  0.00     0.104 A 
ATOM    518  C2    T A  23     -26.843   3.291  47.263  1.00  0.00     0.331 A 
ATOM    519  C5    T A  23     -26.873   3.166  50.064  1.00  0.00     0.092 A 
ATOM    520  C4    T A  23     -26.249   4.286  49.432  1.00  0.00     0.250 A 
ATOM    521  O4    T A  23     -25.672   5.211  50.005  1.00  0.00    -0.268 OA
ATOM    522  N3    T A  23     -26.288   4.262  48.057  1.00  0.00    -0.275 N 
ATOM    523  H3    T A  23     -25.877   5.051  47.582  1.00  0.00     0.173 HD
ATOM    524  O2    T A  23     -26.825   3.361  46.047  1.00  0.00    -0.246 OA
ATOM    525 'HO2   T A  23     -27.503  -1.674  46.015  1.00  0.00     0.210 HD
ATOM    526  C1'   G A  20     -34.033   7.174  46.340  1.00  0.00     0.262 C 
ATOM    527  O2'   G A  20     -33.363   6.805  48.601  1.00  0.00    -0.388 OA
ATOM    528  N9    G A  20     -33.582   6.087  45.477  1.00  0.00    -0.293 N 
ATOM    529  C8    G A  20     -32.444   6.056  44.710  1.00  0.00     0.214 A 
ATOM    530  C4    G A  20     -34.217   4.886  45.276  1.00  0.00     0.187 A 
ATOM    531  N7    G A  20     -32.301   4.943  44.045  1.00  0.00    -0.234 NA
ATOM    532  C5    G A  20     -33.416   4.192  44.393  1.00  0.00     0.173 A 
ATOM    533  C6    G A  20     -33.813   2.891  43.989  1.00  0.00     0.292 A 
ATOM    534  N1    G A  20     -35.013   2.515  44.583  1.00  0.00    -0.153 N 
ATOM    535  O6    G A  20     -33.239   2.114  43.217  1.00  0.00    -0.265 OA
ATOM    536  H1    G A  20     -35.373   1.602  44.353  1.00  0.00     0.187 HD
ATOM    537  C2    G A  20     -35.737   3.288  45.453  1.00  0.00     0.703 A 
ATOM    538  N3    G A  20     -35.380   4.498  45.840  1.00  0.00    -0.044 NA
ATOM    539  N2    G A  20     -36.869   2.751  45.917  1.00  0.00    -0.233 N 
ATOM    540  H21   G A  20     -37.436   3.283  46.561  1.00  0.00     0.174 HD
ATOM    541  H22   G A  20     -37.154   1.827  45.630  1.00  0.00     0.174 HD
ATOM    542 'HO2   G A  20     -34.083   7.269  49.030  1.00  0.00     0.210 HD
BRANCH 513 543
ATOM    543  C4'   C A  25     -17.496  -1.341  48.947  1.00  0.00     0.180 C 
ATOM    544  C3'   C A  25     -16.028  -1.747  48.929  1.00  0.00     0.198 C 
ATOM    545  C2'   C A  25     -15.465  -0.942  50.092  1.00  0.00     0.199 C 
ATOM    546  C1'   C A  25     -16.604  -1.065  51.102  1.00  0.00     0.264 C 
ATOM    547  O4'   C A  25     -17.806  -1.217  50.364  1.00  0.00    -0.353 OA
BRANCH 544 548
ATOM    548  O3'   C A  25     -15.399  -1.432  47.690  1.00  0.00    -0.279 OA
BRANCH 548 549
ATOM    549  P     G A  26     -16.135  -0.452  46.649  1.00  0.00     0.408 P 
ATOM    550  OP2   G A  26     -17.034  -1.264  45.789  1.00  0.00    -0.624 OA
ATOM    551  OP1   G A  26     -16.696   0.679  47.432  1.00  0.00    -0.624 OA
BRANCH 549 552
ATOM    552  O5'   G A  26     -14.951   0.111  45.743  1.00  0.00    -0.287 OA
BRANCH 552 553
ATOM    553  C5'   G A  26     -15.190   0.526  44.399  1.00  0.00     0.216 C 
ATOM    554  C4'   G A  26     -14.197  -0.124  43.462  1.00  0.00     0.180 C 
ATOM    555  C3'   G A  26     -14.105  -1.640  43.527  1.00  0.00     0.198 C 
ATOM    556  O4'   G A  26     -12.851   0.301  43.805  1.00  0.00    -0.353 OA
ATOM    557  C2'   G A  26     -12.742  -1.897  42.896  1.00  0.00     0.199 C 
ATOM    558  O3'   G A  26     -15.163  -2.276  42.816  1.00  0.00    -0.279 OA
ATOM    559  O2'   G A  26     -12.800  -1.778  41.487  1.00  0.00    -0.388 OA
ATOM    560  C1'   G A  26     -11.933  -0.723  43.453  1.00  0.00     0.262 C 
ATOM    561 'HO2   G A  26     -13.712  -1.926  41.237  1.00  0.00     0.210 HD
ATOM    562  N9    G A  26     -11.147  -1.072  44.632  1.00  0.00    -0.293 N 
ATOM    563  C4    G A  26      -9.964  -1.770  44.643  1.00  0.00     0.187 A 
ATOM    564  C8    G A  26     -11.434  -0.777  45.942  1.00  0.00     0.214 A 
ATOM    565  N3    G A  26      -9.320  -2.257  43.561  1.00  0.00    -0.044 NA
ATOM    566  C5    G A  26      -9.601  -1.856  45.971  1.00  0.00     0.173 A 
ATOM    567  C2    G A  26      -8.206  -2.884  43.891  1.00  0.00     0.703 A 
ATOM    568  N2    G A  26      -7.445  -3.426  42.938  1.00  0.00    -0.233 N 
ATOM    569  N1    G A  26      -7.756  -3.025  45.179  1.00  0.00    -0.153 N 
ATOM    570  H21   G A  26      -7.732  -3.350  41.973  1.00  0.00     0.174 HD
ATOM    571  H22   G A  26      -6.590  -3.909  43.176  1.00  0.00     0.174 HD
ATOM    572  H1    G A  26      -6.889  -3.523  45.319  1.00  0.00     0.187 HD
ATOM    573  C6    G A  26      -8.402  -2.534  46.309  1.00  0.00     0.292 A 
ATOM    574  O6    G A  26      -7.910  -2.720  47.427  1.00  0.00    -0.265 OA
ATOM    575  N7    G A  26     -10.538  -1.224  46.778  1.00  0.00    -0.234 NA
ATOM    576  P     A A  27     -15.524  -3.812  43.128  1.00  0.00     0.408 P 
ATOM    577  O5'   A A  27     -14.215  -4.614  42.704  1.00  0.00    -0.287 OA
ATOM    578  OP2   A A  27     -15.707  -3.963  44.595  1.00  0.00    -0.624 OA
ATOM    579  OP1   A A  27     -16.624  -4.200  42.209  1.00  0.00    -0.624 OA
ATOM    580  C5'   A A  27     -13.837  -4.728  41.332  1.00  0.00     0.216 C 
ATOM    581  C4'   A A  27     -12.614  -5.607  41.193  1.00  0.00     0.180 C 
ATOM    582  C3'   A A  27     -12.665  -6.945  41.914  1.00  0.00     0.198 C 
ATOM    583  O4'   A A  27     -11.471  -4.948  41.798  1.00  0.00    -0.353 OA
ATOM    584  O3'   A A  27     -13.409  -7.919  41.187  1.00  0.00    -0.279 OA
ATOM    585  C2'   A A  27     -11.187  -7.300  42.018  1.00  0.00     0.199 C 
ATOM    586  P     G A  28     -13.985  -9.213  41.950  1.00  0.00     0.408 P 
ATOM    587  OP2   G A  28     -14.738  -8.758  43.146  1.00  0.00    -0.624 OA
ATOM    588  OP1   G A  28     -14.665 -10.058  40.934  1.00  0.00    -0.624 OA
ATOM    589  O5'   G A  28     -12.680  -9.984  42.444  1.00  0.00    -0.287 OA
ATOM    590  C5'   G A  28     -11.973 -10.864  41.571  1.00  0.00     0.216 C 
ATOM    591  C4'   G A  28     -10.610 -11.189  42.141  1.00  0.00     0.180 C 
ATOM    592  C3'   G A  28     -10.575 -12.268  43.211  1.00  0.00     0.198 C 
ATOM    593  O4'   G A  28     -10.071 -10.032  42.828  1.00  0.00    -0.353 OA
ATOM    594  C2'   G A  28      -9.241 -11.993  43.900  1.00  0.00     0.199 C 
ATOM    595  C1'   G A  28      -9.174 -10.465  43.838  1.00  0.00     0.262 C 
ATOM    596  N9    G A  28      -9.537  -9.814  45.094  1.00  0.00    -0.293 N 
ATOM    597  C8    G A  28     -10.627  -9.014  45.334  1.00  0.00     0.214 A 
ATOM    598  C4    G A  28      -8.842  -9.886  46.279  1.00  0.00     0.187 A 
ATOM    599  N7    G A  28     -10.680  -8.570  46.560  1.00  0.00    -0.234 NA
ATOM    600  C5    G A  28      -9.557  -9.114  47.170  1.00  0.00     0.173 A 
ATOM    601  C6    G A  28      -9.079  -8.989  48.501  1.00  0.00     0.292 A 
ATOM    602  O6    G A  28      -9.566  -8.349  49.440  1.00  0.00    -0.265 OA
ATOM    603  N1    G A  28      -7.905  -9.709  48.693  1.00  0.00    -0.153 N 
ATOM    604  C2    G A  28      -7.271 -10.451  47.731  1.00  0.00     0.703 A 
ATOM    605  H1    G A  28      -7.492  -9.680  49.611  1.00  0.00     0.187 HD
ATOM    606  N3    G A  28      -7.701 -10.575  46.488  1.00  0.00    -0.044 NA
ATOM    607  O2'   A A  27     -10.689  -7.781  40.783  1.00  0.00    -0.388 OA
ATOM    608  C1'   A A  27     -10.571  -5.927  42.292  1.00  0.00     0.262 C 
ATOM    609 'HO2   A A  27     -11.302  -8.450  40.481  1.00  0.00     0.210 HD
ATOM    610  N9    A A  27     -10.337  -5.669  43.713  1.00  0.00    -0.294 N 
ATOM    611  C4    A A  27      -9.277  -6.133  44.453  1.00  0.00     0.167 A 
ATOM    612  C8    A A  27     -11.106  -4.935  44.580  1.00  0.00     0.214 A 
ATOM    613  N3    A A  27      -8.259  -6.902  44.028  1.00  0.00    -0.222 NA
ATOM    614  C5    A A  27      -9.469  -5.646  45.734  1.00  0.00     0.149 A 
ATOM    615  C2    A A  27      -7.414  -7.156  45.024  1.00  0.00     0.237 A 
ATOM    616  N1    A A  27      -7.468  -6.757  46.303  1.00  0.00    -0.222 NA
ATOM    617  C6    A A  27      -8.503  -5.986  46.697  1.00  0.00     0.155 A 
ATOM    618  N6    A A  27      -8.553  -5.590  47.969  1.00  0.00    -0.382 N 
ATOM    619  H62   A A  27      -7.831  -5.869  48.618  1.00  0.00     0.157 HD
ATOM    620  H61   A A  27      -9.320  -5.012  48.284  1.00  0.00     0.157 HD
ATOM    621  N7    A A  27     -10.630  -4.888  45.800  1.00  0.00    -0.236 NA
BRANCH 592 622
ATOM    622  O3'   G A  28     -10.639 -13.576  42.649  1.00  0.00    -0.279 OA
BRANCH 622 623
ATOM    623  P     A A  29     -11.879 -14.539  43.001  1.00  0.00     0.408 P 
ATOM    624  OP2   A A  29     -11.427 -15.541  44.000  1.00  0.00    -0.624 OA
ATOM    625  OP1   A A  29     -13.039 -13.665  43.313  1.00  0.00    -0.624 OA
BRANCH 623 626
ATOM    626  O5'   A A  29     -12.182 -15.297  41.632  1.00  0.00    -0.287 OA
BRANCH 626 627
ATOM    627  C5'   A A  29     -11.301 -15.175  40.517  1.00  0.00     0.216 C 
BRANCH 627 628
ATOM    628  C4'   A A  29     -11.717 -14.011  39.645  1.00  0.00     0.180 C 
ATOM    629  C3'   A A  29     -12.178 -14.366  38.239  1.00  0.00     0.198 C 
ATOM    630  O3'   A A  29     -13.542 -14.777  38.217  1.00  0.00    -0.279 OA
ATOM    631  C2'   A A  29     -11.952 -13.060  37.486  1.00  0.00     0.199 C 
ATOM    632  P     G A  30     -14.094 -15.647  36.981  1.00  0.00     0.408 P 
ATOM    633  OP1   G A  30     -15.530 -15.923  37.243  1.00  0.00    -0.624 OA
ATOM    634  O5'   G A  30     -14.001 -14.656  35.736  1.00  0.00    -0.287 OA
ATOM    635  OP2   G A  30     -13.161 -16.778  36.749  1.00  0.00    -0.624 OA
ATOM    636  C5'   G A  30     -14.775 -13.457  35.690  1.00  0.00     0.216 C 
ATOM    637  C4'   G A  30     -14.709 -12.842  34.312  1.00  0.00     0.180 C 
ATOM    638  C3'   G A  30     -15.163 -13.752  33.169  1.00  0.00     0.198 C 
ATOM    639  O4'   G A  30     -13.323 -12.501  34.023  1.00  0.00    -0.353 OA
ATOM    640  O3'   G A  30     -15.937 -13.035  32.209  1.00  0.00    -0.279 OA
ATOM    641  C2'   G A  30     -13.852 -14.264  32.581  1.00  0.00     0.199 C 
ATOM    642  P     G A  31     -17.486 -12.712  32.505  1.00  0.00     0.408 P 
ATOM    643  OP1   G A  31     -17.934 -13.609  33.602  1.00  0.00    -0.624 OA
ATOM    644  OP2   G A  31     -18.210 -12.725  31.208  1.00  0.00    -0.624 OA
ATOM    645  O5'   G A  31     -17.473 -11.220  33.065  1.00  0.00    -0.287 OA
ATOM    646  C5'   G A  31     -17.541 -10.096  32.188  1.00  0.00     0.216 C 
ATOM    647  C4'   G A  31     -18.529  -9.082  32.716  1.00  0.00     0.180 C 
ATOM    648  C3'   G A  31     -18.924  -7.981  31.740  1.00  0.00     0.198 C 
ATOM    649  O4'   G A  31     -17.927  -8.375  33.835  1.00  0.00    -0.353 OA
ATOM    650  O3'   G A  31     -19.995  -8.386  30.893  1.00  0.00    -0.279 OA
ATOM    651  C2'   G A  31     -19.320  -6.844  32.673  1.00  0.00     0.199 C 
ATOM    652  P     G A  32     -20.251  -7.614  29.504  1.00  0.00     0.408 P 
ATOM    653  OP1   G A  32     -21.452  -8.221  28.877  1.00  0.00    -0.624 OA
ATOM    654  O5'   G A  32     -20.621  -6.129  29.949  1.00  0.00    -0.287 OA
ATOM    655  OP2   G A  32     -18.972  -7.571  28.751  1.00  0.00    -0.624 OA
ATOM    656  C5'   G A  32     -21.819  -5.854  30.674  1.00  0.00     0.216 C 
ATOM    657  C4'   G A  32     -22.191  -4.395  30.536  1.00  0.00     0.180 C 
ATOM    658  C3'   G A  32     -21.872  -3.761  29.190  1.00  0.00     0.198 C 
ATOM    659  O4'   G A  32     -21.418  -3.617  31.487  1.00  0.00    -0.353 OA
ATOM    660  C2'   G A  32     -21.756  -2.282  29.542  1.00  0.00     0.199 C 
ATOM    661  O3'   G A  32     -22.899  -4.023  28.237  1.00  0.00    -0.279 OA
ATOM    662  O2'   G A  32     -23.032  -1.679  29.663  1.00  0.00    -0.388 OA
ATOM    663  C1'   G A  32     -21.117  -2.349  30.930  1.00  0.00     0.262 C 
ATOM    664 'HO2   G A  32     -23.317  -1.446  28.779  1.00  0.00     0.210 HD
ATOM    665  N9    G A  32     -19.667  -2.187  30.917  1.00  0.00    -0.293 N 
ATOM    666  C4    G A  32     -18.977  -0.997  30.915  1.00  0.00     0.187 A 
ATOM    667  C8    G A  32     -18.721  -3.181  30.908  1.00  0.00     0.214 A 
ATOM    668  N3    G A  32     -19.524   0.236  30.921  1.00  0.00    -0.044 NA
ATOM    669  C5    G A  32     -17.644  -1.348  30.907  1.00  0.00     0.173 A 
ATOM    670  C2    G A  32     -18.603   1.183  30.917  1.00  0.00     0.703 A 
ATOM    671  N2    G A  32     -18.974   2.467  30.917  1.00  0.00    -0.233 N 
ATOM    672  N1    G A  32     -17.254   0.942  30.911  1.00  0.00    -0.153 N 
ATOM    673  H21   G A  32     -19.957   2.696  30.921  1.00  0.00     0.174 HD
ATOM    674  H22   G A  32     -18.282   3.201  30.913  1.00  0.00     0.174 HD
ATOM    675  C6    G A  32     -16.668  -0.317  30.906  1.00  0.00     0.292 A 
ATOM    676  H1    G A  32     -16.632   1.737  30.909  1.00  0.00     0.187 HD
ATOM    677  O6    G A  32     -15.437  -0.421  30.904  1.00  0.00    -0.265 OA
ATOM    678  N7    G A  32     -17.497  -2.728  30.902  1.00  0.00    -0.234 NA
ATOM    679  P     T A  33     -22.655  -3.680  26.685  1.00  0.00     0.408 P 
ATOM    680  OP1   T A  33     -23.727  -4.356  25.911  1.00  0.00    -0.624 OA
ATOM    681  O5'   T A  33     -22.900  -2.108  26.595  1.00  0.00    -0.287 OA
ATOM    682  OP2   T A  33     -21.231  -3.955  26.359  1.00  0.00    -0.624 OA
ATOM    683  C5'   T A  33     -21.949  -1.246  25.972  1.00  0.00     0.216 C 
ATOM    684  C4'   T A  33     -22.181   0.182  26.402  1.00  0.00     0.180 C 
ATOM    685  C3'   T A  33     -21.621   1.243  25.463  1.00  0.00     0.198 C 
ATOM    686  O4'   T A  33     -21.502   0.404  27.668  1.00  0.00    -0.353 OA
ATOM    687  O3'   T A  33     -22.558   1.587  24.445  1.00  0.00    -0.279 OA
ATOM    688  C2'   T A  33     -21.338   2.403  26.408  1.00  0.00     0.199 C 
ATOM    689  P     T A  34     -22.188   1.338  22.898  1.00  0.00     0.408 P 
ATOM    690  OP1   T A  34     -23.465   1.148  22.165  1.00  0.00    -0.624 OA
ATOM    691  O5'   T A  34     -21.548   2.720  22.428  1.00  0.00    -0.287 OA
ATOM    692  OP2   T A  34     -21.135   0.293  22.821  1.00  0.00    -0.624 OA
ATOM    693  C5'   T A  34     -22.325   3.916  22.395  1.00  0.00     0.216 C 
ATOM    694  C4'   T A  34     -21.455   5.114  22.696  1.00  0.00     0.180 C 
ATOM    695  O4'   T A  34     -20.772   4.895  23.961  1.00  0.00    -0.353 OA
ATOM    696  C3'   T A  34     -20.337   5.376  21.696  1.00  0.00     0.198 C 
ATOM    697  C1'   T A  34     -19.444   5.381  23.879  1.00  0.00     0.264 C 
ATOM    698  C2'   T A  34     -19.302   6.108  22.542  1.00  0.00     0.199 C 
ATOM    699  N1    T A  34     -18.523   4.245  24.034  1.00  0.00    -0.280 N 
ATOM    700  C6    T A  34     -18.957   2.949  23.877  1.00  0.00     0.104 A 
ATOM    701  C2    T A  34     -17.204   4.522  24.343  1.00  0.00     0.331 A 
ATOM    702  C5    T A  34     -18.140   1.899  24.013  1.00  0.00     0.092 A 
ATOM    703  C4    T A  34     -16.762   2.103  24.329  1.00  0.00     0.250 A 
ATOM    704  O4    T A  34     -15.916   1.223  24.475  1.00  0.00    -0.268 OA
ATOM    705  N3    T A  34     -16.395   3.421  24.472  1.00  0.00    -0.275 N 
ATOM    706  H3    T A  34     -15.428   3.601  24.691  1.00  0.00     0.173 HD
ATOM    707  O2    T A  34     -16.780   5.654  24.489  1.00  0.00    -0.246 OA
ATOM    708  C1'   T A  33     -20.843   1.658  27.646  1.00  0.00     0.264 C 
ATOM    709  O2'   T A  33     -22.526   3.097  26.740  1.00  0.00    -0.388 OA
ATOM    710  N1    T A  33     -19.392   1.420  27.659  1.00  0.00    -0.280 N 
ATOM    711  C6    T A  33     -18.875   0.143  27.640  1.00  0.00     0.104 A 
ATOM    712  C2    T A  33     -18.558   2.523  27.686  1.00  0.00     0.331 A 
ATOM    713  C5    T A  33     -17.560  -0.097  27.648  1.00  0.00     0.092 A 
ATOM    714  C4    T A  33     -16.636   0.992  27.675  1.00  0.00     0.250 A 
ATOM    715  O4    T A  33     -15.409   0.899  27.695  1.00  0.00    -0.268 OA
ATOM    716  N3    T A  33     -17.218   2.237  27.692  1.00  0.00    -0.275 N 
ATOM    717  H3    T A  33     -16.592   3.028  27.702  1.00  0.00     0.173 HD
ATOM    718  O2    T A  33     -18.973   3.667  27.706  1.00  0.00    -0.246 OA
ATOM    719 'HO2   T A  33     -23.062   3.121  25.947  1.00  0.00     0.210 HD
ATOM    720  C1'   G A  31     -18.290  -7.006  33.790  1.00  0.00     0.262 C 
ATOM    721  O2'   G A  31     -20.612  -7.053  33.211  1.00  0.00    -0.388 OA
ATOM    722  N9    G A  31     -17.080  -6.214  33.591  1.00  0.00    -0.293 N 
ATOM    723  C4    G A  31     -16.976  -4.845  33.669  1.00  0.00     0.187 A 
ATOM    724  C8    G A  31     -15.824  -6.679  33.285  1.00  0.00     0.214 A 
ATOM    725  N3    G A  31     -17.980  -3.989  33.949  1.00  0.00    -0.044 NA
ATOM    726  C5    G A  31     -15.652  -4.563  33.405  1.00  0.00     0.173 A 
ATOM    727  C2    G A  31     -17.570  -2.733  33.953  1.00  0.00     0.703 A 
ATOM    728  N2    G A  31     -18.441  -1.753  34.209  1.00  0.00    -0.233 N 
ATOM    729  N1    G A  31     -16.278  -2.346  33.704  1.00  0.00    -0.153 N 
ATOM    730  H21   G A  31     -19.404  -1.989  34.397  1.00  0.00     0.174 HD
ATOM    731  H22   G A  31     -18.142  -0.790  34.213  1.00  0.00     0.174 HD
ATOM    732  C6    G A  31     -15.228  -3.209  33.415  1.00  0.00     0.292 A 
ATOM    733  H1    G A  31     -16.064  -1.362  33.729  1.00  0.00     0.187 HD
ATOM    734  O6    G A  31     -14.097  -2.752  33.209  1.00  0.00    -0.265 OA
ATOM    735  N7    G A  31     -14.938  -5.730  33.165  1.00  0.00    -0.234 NA
ATOM    736 'HO2   G A  31     -21.057  -7.665  32.625  1.00  0.00     0.210 HD
ATOM    737  O2'   G A  30     -13.978 -14.520  31.194  1.00  0.00    -0.388 OA
ATOM    738  C1'   G A  30     -12.955 -13.048  32.777  1.00  0.00     0.262 C 
ATOM    739 'HO2   G A  30     -14.687 -13.962  30.875  1.00  0.00     0.210 HD
ATOM    740  N9    G A  30     -11.526 -13.344  32.803  1.00  0.00    -0.293 N 
ATOM    741  C8    G A  30     -10.859 -14.152  33.692  1.00  0.00     0.214 A 
ATOM    742  C4    G A  30     -10.579 -12.865  31.932  1.00  0.00     0.187 A 
ATOM    743  N7    G A  30      -9.577 -14.226  33.458  1.00  0.00    -0.234 NA
ATOM    744  C5    G A  30      -9.386 -13.416  32.347  1.00  0.00     0.173 A 
ATOM    745  C6    G A  30      -8.202 -13.102  31.629  1.00  0.00     0.292 A 
ATOM    746  N1    G A  30      -8.461 -12.241  30.568  1.00  0.00    -0.153 N 
ATOM    747  O6    G A  30      -7.048 -13.489  31.837  1.00  0.00    -0.265 OA
ATOM    748  C2    G A  30      -9.696 -11.745  30.239  1.00  0.00     0.703 A 
ATOM    749  H1    G A  30      -7.676 -11.963  30.000  1.00  0.00     0.187 HD
ATOM    750  N2    G A  30      -9.742 -10.929  29.184  1.00  0.00    -0.233 N 
ATOM    751  N3    G A  30     -10.805 -12.029  30.896  1.00  0.00    -0.044 NA
ATOM    752  H21   G A  30     -10.630 -10.538  28.903  1.00  0.00     0.174 HD
ATOM    753  H22   G A  30      -8.902 -10.701  28.674  1.00  0.00     0.174 HD
ATOM    754  O2'   A A  29     -12.987 -12.132  37.751  1.00  0.00    -0.388 OA
ATOM    755  C1'   A A  29     -10.665 -12.554  38.140  1.00  0.00     0.262 C 
ATOM    756 'HO2   A A  29     -13.711 -12.630  38.135  1.00  0.00     0.210 HD
ATOM    757  O4'   A A  29     -10.573 -13.144  39.426  1.00  0.00    -0.353 OA
BRANCH 698 758
ATOM    758  O2'   T A  34     -19.656   7.467  22.723  1.00  0.00    -0.388 OA
ATOM    759 'HO2   T A  34     -19.165   7.782  23.482  1.00  0.00     0.210 HD
ENDBRANCH 698 758
BRANCH 696 760
ATOM    760  O3'   T A  34     -20.794   6.161  20.596  1.00  0.00    -0.279 OA
BRANCH 760 761
ATOM    761  P     C A  35     -22.187   6.963  20.703  1.00  0.00     0.408 P 
ATOM    762  OP1   C A  35     -23.270   6.009  20.354  1.00  0.00    -0.624 OA
ATOM    763  OP2   C A  35     -22.072   8.245  19.962  1.00  0.00    -0.624 OA
BRANCH 761 764
ATOM    764  O5'   C A  35     -22.314   7.306  22.255  1.00  0.00    -0.287 OA
BRANCH 764 765
ATOM    765  C5'   C A  35     -23.349   8.158  22.740  1.00  0.00     0.216 C 
BRANCH 765 766
ATOM    766  C4'   C A  35     -24.263   7.392  23.669  1.00  0.00     0.180 C 
ATOM    767  O4'   C A  35     -23.479   6.388  24.370  1.00  0.00    -0.353 OA
ATOM    768  C1'   C A  35     -23.870   6.336  25.732  1.00  0.00     0.264 C 
ATOM    769  N1    C A  35     -22.740   6.795  26.558  1.00  0.00    -0.278 N 
ATOM    770  C2'   C A  35     -25.127   7.193  25.876  1.00  0.00     0.199 C 
ATOM    771  C6    C A  35     -21.784   7.625  26.041  1.00  0.00     0.102 A 
ATOM    772  C2    C A  35     -22.658   6.367  27.886  1.00  0.00     0.352 A 
ATOM    773  C5    C A  35     -20.756   8.044  26.787  1.00  0.00     0.067 A 
ATOM    774  C4    C A  35     -20.697   7.591  28.137  1.00  0.00     0.128 A 
ATOM    775  N4    C A  35     -19.696   7.971  28.930  1.00  0.00    -0.384 N 
ATOM    776  N3    C A  35     -21.624   6.781  28.650  1.00  0.00    -0.177 NA
ATOM    777  H41   C A  35     -18.973   8.584  28.580  1.00  0.00     0.157 HD
ATOM    778  H42   C A  35     -19.667   7.641  29.883  1.00  0.00     0.157 HD
ATOM    779  O2    C A  35     -23.537   5.616  28.331  1.00  0.00    -0.244 OA
ATOM    780  C3'   C A  35     -24.914   8.219  24.770  1.00  0.00     0.198 C 
ATOM    781  O2'   C A  35     -26.260   6.386  25.617  1.00  0.00    -0.388 OA
ATOM    782  O3'   C A  35     -26.139   8.803  24.332  1.00  0.00    -0.279 OA
ATOM    783  P     A A  36     -26.366  10.389  24.477  1.00  0.00     0.408 P 
ATOM    784  OP2   A A  36     -25.395  11.078  23.589  1.00  0.00    -0.624 OA
ATOM    785  O5'   A A  36     -25.967  10.702  25.988  1.00  0.00    -0.287 OA
ATOM    786  OP1   A A  36     -27.820  10.641  24.308  1.00  0.00    -0.624 OA
ATOM    787  C5'   A A  36     -26.900  11.294  26.894  1.00  0.00     0.216 C 
ATOM    788  C4'   A A  36     -27.576  10.225  27.725  1.00  0.00     0.180 C 
ATOM    789  C3'   A A  36     -27.729  10.559  29.207  1.00  0.00     0.198 C 
ATOM    790  O4'   A A  36     -26.767   9.014  27.678  1.00  0.00    -0.353 OA
ATOM    791  O3'   A A  36     -29.000  11.144  29.482  1.00  0.00    -0.279 OA
ATOM    792  C2'   A A  36     -27.562   9.205  29.885  1.00  0.00     0.199 C 
ATOM    793  P     A A  37     -29.088  12.668  29.986  1.00  0.00     0.408 P 
ATOM    794  OP2   A A  37     -27.963  13.431  29.388  1.00  0.00    -0.624 OA
ATOM    795  OP1   A A  37     -30.484  13.123  29.757  1.00  0.00    -0.624 OA
ATOM    796  O5'   A A  37     -28.846  12.571  31.559  1.00  0.00    -0.287 OA
ATOM    797  O2'   A A  36     -28.750   8.440  29.806  1.00  0.00    -0.388 OA
ATOM    798  C1'   A A  36     -26.505   8.565  28.992  1.00  0.00     0.262 C 
ATOM    799 'HO2   A A  36     -29.450   9.047  29.563  1.00  0.00     0.210 HD
ATOM    800  N9    A A  36     -25.132   8.931  29.338  1.00  0.00    -0.294 N 
ATOM    801  C8    A A  36     -24.165   9.452  28.513  1.00  0.00     0.214 A 
ATOM    802  C4    A A  36     -24.547   8.822  30.577  1.00  0.00     0.167 A 
ATOM    803  N7    A A  36     -23.024   9.682  29.115  1.00  0.00    -0.236 NA
ATOM    804  C5    A A  36     -23.254   9.287  30.426  1.00  0.00     0.149 A 
ATOM    805  C6    A A  36     -22.437   9.279  31.568  1.00  0.00     0.155 A 
ATOM    806  N6    A A  36     -21.170   9.698  31.576  1.00  0.00    -0.382 N 
ATOM    807  N1    A A  36     -22.971   8.823  32.720  1.00  0.00    -0.222 NA
ATOM    808  H62   A A  36     -20.638   9.667  32.433  1.00  0.00     0.157 HD
ATOM    809  H61   A A  36     -20.752  10.045  30.725  1.00  0.00     0.157 HD
ATOM    810  C2    A A  36     -24.242   8.403  32.714  1.00  0.00     0.237 A 
ATOM    811  N3    A A  36     -25.110   8.361  31.707  1.00  0.00    -0.222 NA
ATOM    812 'HO2   C A  35     -27.009   6.978  25.549  1.00  0.00     0.210 HD
BRANCH 796 813
ATOM    813  C5'   A A  37     -29.940  12.410  32.461  1.00  0.00     0.216 C 
BRANCH 813 814
ATOM    814  C4'   A A  37     -29.664  13.141  33.756  1.00  0.00     0.180 C 
ATOM    815  O4'   A A  37     -28.887  12.286  34.634  1.00  0.00    -0.353 OA
ATOM    816  C1'   A A  37     -28.025  13.081  35.430  1.00  0.00     0.262 C 
ATOM    817  C2'   A A  37     -28.240  14.544  35.037  1.00  0.00     0.199 C 
ATOM    818  C3'   A A  37     -28.820  14.401  33.633  1.00  0.00     0.198 C 
BRANCH 816 819
ATOM    819  N9    A A  37     -26.652  12.620  35.226  1.00  0.00    -0.294 N 
ATOM    820  C8    A A  37     -25.968  12.489  34.044  1.00  0.00     0.214 A 
ATOM    821  N7    A A  37     -24.740  12.053  34.190  1.00  0.00    -0.236 NA
ATOM    822  C5    A A  37     -24.608  11.884  35.562  1.00  0.00     0.149 A 
ATOM    823  C6    A A  37     -23.539  11.446  36.363  1.00  0.00     0.155 A 
ATOM    824  C4    A A  37     -25.778  12.229  36.211  1.00  0.00     0.167 A 
ATOM    825  N6    A A  37     -22.350  11.083  35.881  1.00  0.00    -0.382 N 
ATOM    826  N1    A A  37     -23.736  11.393  37.697  1.00  0.00    -0.222 NA
ATOM    827  H61   A A  37     -22.182  11.117  34.885  1.00  0.00     0.157 HD
ATOM    828  H62   A A  37     -21.626  10.784  36.515  1.00  0.00     0.157 HD
ATOM    829  C2    A A  37     -24.929  11.759  38.185  1.00  0.00     0.237 A 
ATOM    830  N3    A A  37     -26.008  12.189  37.535  1.00  0.00    -0.222 NA
ENDBRANCH 816 819
BRANCH 817 831
ATOM    831  O2'   A A  37     -29.181  15.115  35.928  1.00  0.00    -0.388 OA
ATOM    832 'HO2   A A  37     -29.823  15.587  35.396  1.00  0.00     0.210 HD
ENDBRANCH 817 831
BRANCH 818 833
ATOM    833  O3'   A A  37     -29.614  15.521  33.248  1.00  0.00    -0.279 OA
BRANCH 833 834
ATOM    834  P     A A  38     -29.178  16.416  31.984  1.00  0.00     0.408 P 
ATOM    835  OP1   A A  38     -30.298  16.382  31.010  1.00  0.00    -0.624 OA
ATOM    836  OP2   A A  38     -27.822  15.984  31.558  1.00  0.00    -0.624 OA
BRANCH 834 837
ATOM    837  O5'   A A  38     -29.072  17.896  32.569  1.00  0.00    -0.287 OA
BRANCH 837 838
ATOM    838  C5'   A A  38     -27.801  18.514  32.782  1.00  0.00     0.216 C 
BRANCH 838 839
ATOM    839  C4'   A A  38     -27.812  19.295  34.077  1.00  0.00     0.180 C 
ATOM    840  C3'   A A  38     -26.502  20.005  34.413  1.00  0.00     0.198 C 
ATOM    841  C2'   A A  38     -26.499  20.021  35.939  1.00  0.00     0.199 C 
ATOM    842  O2'   A A  38     -27.301  21.055  36.473  1.00  0.00    -0.388 OA
ATOM    843  C1'   A A  38     -27.169  18.684  36.253  1.00  0.00     0.262 C 
ATOM    844 'HO2   A A  38     -28.207  20.893  36.203  1.00  0.00     0.210 HD
ATOM    845  O4'   A A  38     -28.028  18.366  35.174  1.00  0.00    -0.353 OA
BRANCH 840 846
ATOM    846  O3'   A A  38     -26.385  21.325  33.857  1.00  0.00    -0.279 OA
ATOM    847  P     T A  39     -24.956  22.073  33.786  1.00  0.00     0.408 P 
ATOM    848  OP2   T A  39     -24.912  23.057  34.898  1.00  0.00    -0.624 OA
ATOM    849  OP1   T A  39     -23.861  21.080  33.647  1.00  0.00    -0.624 OA
ATOM    850  O5'   T A  39     -25.022  22.885  32.417  1.00  0.00    -0.287 OA
ATOM    851  C5'   T A  39     -25.868  22.459  31.349  1.00  0.00     0.216 C 
ATOM    852  C4'   T A  39     -25.190  22.696  30.019  1.00  0.00     0.180 C 
ATOM    853  O4'   T A  39     -25.259  24.118  29.708  1.00  0.00    -0.353 OA
ATOM    854  C3'   T A  39     -23.707  22.335  29.967  1.00  0.00     0.198 C 
ATOM    855  C1'   T A  39     -23.955  24.632  29.547  1.00  0.00     0.264 C 
ATOM    856  C2'   T A  39     -23.023  23.665  30.269  1.00  0.00     0.199 C 
ATOM    857  N1    T A  39     -23.921  26.011  30.061  1.00  0.00    -0.280 N 
ATOM    858  O2'   T A  39     -21.741  23.741  29.671  1.00  0.00    -0.388 OA
ATOM    859 'HO2   T A  39     -21.340  22.876  29.758  1.00  0.00     0.210 HD
ATOM    860  C2    T A  39     -24.546  26.281  31.269  1.00  0.00     0.331 A 
ATOM    861  C6    T A  39     -23.284  27.007  29.356  1.00  0.00     0.104 A 
ATOM    862  N3    T A  39     -24.476  27.588  31.677  1.00  0.00    -0.275 N 
ATOM    863  O2    T A  39     -25.117  25.434  31.929  1.00  0.00    -0.246 OA
ATOM    864  H3    T A  39     -24.924  27.807  32.553  1.00  0.00     0.173 HD
ATOM    865  C4    T A  39     -23.860  28.629  31.024  1.00  0.00     0.250 A 
ATOM    866  O4    T A  39     -23.891  29.755  31.519  1.00  0.00    -0.268 OA
ATOM    867  C5    T A  39     -23.235  28.270  29.789  1.00  0.00     0.092 A 
ATOM    868  O3'   T A  39     -23.356  21.817  28.685  1.00  0.00    -0.279 OA
ATOM    869  P     C A  40     -22.186  20.720  28.553  1.00  0.00     0.408 P 
ATOM    870  OP2   C A  40     -22.744  19.524  27.869  1.00  0.00    -0.624 OA
ATOM    871  O5'   C A  40     -21.841  20.314  30.055  1.00  0.00    -0.287 OA
ATOM    872  OP1   C A  40     -20.999  21.406  27.981  1.00  0.00    -0.624 OA
ATOM    873  C5'   C A  40     -20.986  19.205  30.335  1.00  0.00     0.216 C 
ATOM    874  C4'   C A  40     -20.842  19.016  31.827  1.00  0.00     0.180 C 
ATOM    875  O4'   C A  40     -22.171  18.900  32.408  1.00  0.00    -0.353 OA
ATOM    876  C3'   C A  40     -20.093  17.749  32.237  1.00  0.00     0.198 C 
ATOM    877  C1'   C A  40     -22.271  17.692  33.133  1.00  0.00     0.264 C 
ATOM    878  N1    C A  40     -23.008  16.718  32.307  1.00  0.00    -0.278 N 
ATOM    879  C2'   C A  40     -20.843  17.284  33.481  1.00  0.00     0.199 C 
ATOM    880  C6    C A  40     -23.660  17.118  31.173  1.00  0.00     0.102 A 
ATOM    881  C2    C A  40     -23.035  15.375  32.700  1.00  0.00     0.352 A 
ATOM    882  C5    C A  40     -24.332  16.241  30.417  1.00  0.00     0.067 A 
ATOM    883  C4    C A  40     -24.342  14.881  30.840  1.00  0.00     0.128 A 
ATOM    884  N3    C A  40     -23.710  14.479  31.944  1.00  0.00    -0.177 NA
ATOM    885  N4    C A  40     -24.994  13.961  30.129  1.00  0.00    -0.384 N 
ATOM    886  H41   C A  40     -25.485  14.223  29.285  1.00  0.00     0.157 HD
ATOM    887  H42   C A  40     -24.994  13.000  30.440  1.00  0.00     0.157 HD
ATOM    888  O2    C A  40     -22.438  15.037  33.731  1.00  0.00    -0.244 OA
ATOM    889  O2'   C A  40     -20.432  18.003  34.629  1.00  0.00    -0.388 OA
ATOM    890 'HO2   C A  40     -19.612  18.442  34.402  1.00  0.00     0.210 HD
ATOM    891  O3'   C A  40     -18.720  18.022  32.508  1.00  0.00    -0.279 OA
ATOM    892  P     C A  41     -17.585  17.489  31.499  1.00  0.00     0.408 P 
ATOM    893  O5'   C A  41     -17.771  15.907  31.510  1.00  0.00    -0.287 OA
ATOM    894  OP2   C A  41     -17.907  17.981  30.136  1.00  0.00    -0.624 OA
ATOM    895  OP1   C A  41     -16.265  17.807  32.102  1.00  0.00    -0.624 OA
ATOM    896  C5'   C A  41     -17.541  15.147  32.696  1.00  0.00     0.216 C 
ATOM    897  C4'   C A  41     -17.626  13.670  32.390  1.00  0.00     0.180 C 
ATOM    898  O4'   C A  41     -19.019  13.318  32.158  1.00  0.00    -0.353 OA
ATOM    899  C3'   C A  41     -16.898  13.220  31.129  1.00  0.00     0.198 C 
ATOM    900  C1'   C A  41     -19.110  12.423  31.063  1.00  0.00     0.264 C 
ATOM    901  N1    C A  41     -19.801  13.105  29.957  1.00  0.00    -0.278 N 
ATOM    902  C2'   C A  41     -17.688  11.985  30.719  1.00  0.00     0.199 C 
ATOM    903  C2    C A  41     -20.251  12.345  28.875  1.00  0.00     0.352 A 
ATOM    904  C6    C A  41     -19.999  14.458  29.979  1.00  0.00     0.102 A 
ATOM    905  N3    C A  41     -20.881  12.961  27.850  1.00  0.00    -0.177 NA
ATOM    906  O2    C A  41     -20.061  11.122  28.880  1.00  0.00    -0.244 OA
ATOM    907  C4    C A  41     -21.068  14.281  27.879  1.00  0.00     0.128 A 
ATOM    908  N4    C A  41     -21.694  14.843  26.846  1.00  0.00    -0.384 N 
ATOM    909  C5    C A  41     -20.621  15.083  28.970  1.00  0.00     0.067 A 
ATOM    910  H41   C A  41     -21.857  15.840  26.829  1.00  0.00     0.157 HD
ATOM    911  H42   C A  41     -22.009  14.266  26.078  1.00  0.00     0.157 HD
ATOM    912  O2'   C A  41     -17.348  10.869  31.519  1.00  0.00    -0.388 OA
ATOM    913 'HO2   C A  41     -16.508  11.069  31.933  1.00  0.00     0.210 HD
ATOM    914  O3'   C A  41     -15.527  12.930  31.387  1.00  0.00    -0.279 OA
ATOM    915  P     C A  42     -14.458  12.993  30.188  1.00  0.00     0.408 P 
ATOM    916  OP2   C A  42     -14.658  14.264  29.446  1.00  0.00    -0.624 OA
ATOM    917  O5'   C A  42     -14.879  11.789  29.233  1.00  0.00    -0.287 OA
ATOM    918  OP1   C A  42     -13.125  12.684  30.767  1.00  0.00    -0.624 OA
ATOM    919  C5'   C A  42     -14.796  10.435  29.677  1.00  0.00     0.216 C 
ATOM    920  C4'   C A  42     -15.096   9.492  28.535  1.00  0.00     0.180 C 
ATOM    921  O4'   C A  42     -16.512   9.567  28.218  1.00  0.00    -0.353 OA
ATOM    922  C3'   C A  42     -14.396   9.811  27.222  1.00  0.00     0.198 C 
ATOM    923  C1'   C A  42     -16.695   9.454  26.817  1.00  0.00     0.264 C 
ATOM    924  C2'   C A  42     -15.326   9.181  26.192  1.00  0.00     0.199 C 
BRANCH 923 925
ATOM    925  N1    C A  42     -17.333  10.688  26.330  1.00  0.00    -0.278 N 
ATOM    926  C6    C A  42     -17.059  11.896  26.911  1.00  0.00     0.102 A 
ATOM    927  C5    C A  42     -17.644  13.020  26.476  1.00  0.00     0.067 A 
ATOM    928  C4    C A  42     -18.555  12.905  25.387  1.00  0.00     0.128 A 
ATOM    929  N3    C A  42     -18.824  11.733  24.810  1.00  0.00    -0.177 NA
ATOM    930  N4    C A  42     -19.170  13.986  24.910  1.00  0.00    -0.384 N 
ATOM    931  C2    C A  42     -18.229  10.607  25.262  1.00  0.00     0.352 A 
ATOM    932  O2    C A  42     -18.459   9.501  24.751  1.00  0.00    -0.244 OA
ATOM    933  H42   C A  42     -19.815  13.890  24.138  1.00  0.00     0.157 HD
ATOM    934  H41   C A  42     -18.995  14.893  25.317  1.00  0.00     0.157 HD
ENDBRANCH 923 925
BRANCH 924 935
ATOM    935  O2'   C A  42     -15.132   7.781  26.119  1.00  0.00    -0.388 OA
ATOM    936 'HO2   C A  42     -14.678   7.525  26.921  1.00  0.00     0.210 HD
ENDBRANCH 924 935
BRANCH 922 937
ATOM    937  O3'   C A  42     -13.083   9.258  27.180  1.00  0.00    -0.279 OA
BRANCH 937 938
ATOM    938  P     G A  43     -11.830  10.199  26.822  1.00  0.00     0.408 P 
ATOM    939  OP2   G A  43     -12.067  11.544  27.407  1.00  0.00    -0.624 OA
ATOM    940  OP1   G A  43     -10.599   9.450  27.184  1.00  0.00    -0.624 OA
BRANCH 938 941
ATOM    941  O5'   G A  43     -11.882  10.329  25.235  1.00  0.00    -0.287 OA
BRANCH 941 942
ATOM    942  C5'   G A  43     -10.766   9.951  24.430  1.00  0.00     0.216 C 
BRANCH 942 943
ATOM    943  C4'   G A  43     -10.834  10.643  23.087  1.00  0.00     0.180 C 
ATOM    944  O4'   G A  43     -11.736   9.900  22.225  1.00  0.00    -0.353 OA
ATOM    945  C1'   G A  43     -12.480  10.798  21.422  1.00  0.00     0.262 C 
ATOM    946  C2'   G A  43     -11.978  12.213  21.707  1.00  0.00     0.199 C 
ATOM    947  C3'   G A  43     -11.397  12.057  23.109  1.00  0.00     0.198 C 
ATOM    948  O2'   G A  43     -10.968  12.533  20.768  1.00  0.00    -0.388 OA
ATOM    949  O3'   G A  43     -10.381  13.022  23.375  1.00  0.00    -0.279 OA
ATOM    950  P     G A  44     -10.268  13.687  24.837  1.00  0.00     0.408 P 
ATOM    951  OP2   G A  44     -11.635  14.007  25.322  1.00  0.00    -0.624 OA
ATOM    952  O5'   G A  44      -9.498  15.058  24.577  1.00  0.00    -0.287 OA
ATOM    953  OP1   G A  44      -9.385  12.816  25.653  1.00  0.00    -0.624 OA
ATOM    954  C5'   G A  44      -8.867  15.321  23.324  1.00  0.00     0.216 C 
ATOM    955  C4'   G A  44      -8.550  16.793  23.195  1.00  0.00     0.180 C 
ATOM    956  C3'   G A  44      -7.493  17.316  24.167  1.00  0.00     0.198 C 
ATOM    957  O4'   G A  44      -9.761  17.554  23.469  1.00  0.00    -0.353 OA
ATOM    958  C2'   G A  44      -8.314  17.991  25.261  1.00  0.00     0.199 C 
ATOM    959  C1'   G A  44      -9.497  18.522  24.459  1.00  0.00     0.262 C 
ATOM    960  N9    G A  44     -10.714  18.730  25.238  1.00  0.00    -0.293 N 
ATOM    961  C4    G A  44     -10.977  18.248  26.499  1.00  0.00     0.187 A 
ATOM    962  C8    G A  44     -11.823  19.449  24.862  1.00  0.00     0.214 A 
ATOM    963  N3    G A  44     -10.150  17.486  27.246  1.00  0.00    -0.044 NA
ATOM    964  C5    G A  44     -12.238  18.710  26.812  1.00  0.00     0.173 A 
ATOM    965  C2    G A  44     -10.682  17.182  28.415  1.00  0.00     0.703 A 
ATOM    966  N1    G A  44     -11.925  17.590  28.824  1.00  0.00    -0.153 N 
ATOM    967  N2    G A  44      -9.992  16.433  29.279  1.00  0.00    -0.233 N 
ATOM    968  C6    G A  44     -12.794  18.373  28.074  1.00  0.00     0.292 A 
ATOM    969  H1    G A  44     -12.236  17.303  29.738  1.00  0.00     0.187 HD
ATOM    970  O6    G A  44     -13.897  18.683  28.540  1.00  0.00    -0.265 OA
ATOM    971  H22   G A  44     -10.384  16.192  30.177  1.00  0.00     0.174 HD
ATOM    972  H21   G A  44      -9.071  16.109  29.022  1.00  0.00     0.174 HD
ATOM    973  N7    G A  44     -12.760  19.465  25.769  1.00  0.00    -0.234 NA
ATOM    974 'HO2   G A  43     -10.253  12.940  21.259  1.00  0.00     0.210 HD
BRANCH 945 975
ATOM    975  N9    G A  43     -13.898  10.611  21.716  1.00  0.00    -0.293 N 
ATOM    976  C4    G A  43     -14.946  11.286  21.141  1.00  0.00     0.187 A 
ATOM    977  N3    G A  43     -14.849  12.246  20.198  1.00  0.00    -0.044 NA
ATOM    978  C5    G A  43     -16.081  10.772  21.731  1.00  0.00     0.173 A 
ATOM    979  C2    G A  43     -16.034  12.709  19.841  1.00  0.00     0.703 A 
ATOM    980  N2    G A  43     -16.120  13.668  18.917  1.00  0.00    -0.233 N 
ATOM    981  N1    G A  43     -17.221  12.266  20.365  1.00  0.00    -0.153 N 
ATOM    982  H22   G A  43     -17.017  14.024  18.625  1.00  0.00     0.174 HD
ATOM    983  H21   G A  43     -15.269  14.025  18.506  1.00  0.00     0.174 HD
ATOM    984  C6    G A  43     -17.347  11.278  21.335  1.00  0.00     0.292 A 
ATOM    985  H1    G A  43     -18.072  12.685  20.024  1.00  0.00     0.187 HD
ATOM    986  O6    G A  43     -18.469  10.952  21.737  1.00  0.00    -0.265 OA
ATOM    987  N7    G A  43     -15.752   9.792  22.659  1.00  0.00    -0.234 NA
ATOM    988  C8    G A  43     -14.450   9.733  22.616  1.00  0.00     0.214 A 
ENDBRANCH 945 975
BRANCH 956 989
ATOM    989  O3'   G A  44      -6.602  18.226  23.526  1.00  0.00    -0.279 OA
BRANCH 989 990
ATOM    990  P     A A  45      -5.235  17.684  22.874  1.00  0.00     0.408 P 
ATOM    991  O5'   A A  45      -4.172  18.824  23.203  1.00  0.00    -0.287 OA
ATOM    992  C5'   A A  45      -2.829  18.741  22.723  1.00  0.00     0.216 C 
ATOM    993  C4'   A A  45      -1.874  19.330  23.736  1.00  0.00     0.180 C 
ATOM    994  O4'   A A  45      -1.418  20.623  23.246  1.00  0.00    -0.353 OA
ATOM    995  C3'   A A  45      -2.471  19.610  25.113  1.00  0.00     0.198 C 
ATOM    996  C1'   A A  45      -1.562  21.597  24.261  1.00  0.00     0.262 C 
ATOM    997  C2'   A A  45      -1.687  20.831  25.574  1.00  0.00     0.199 C 
ATOM    998  N9    A A  45      -2.727  22.423  23.944  1.00  0.00    -0.294 N 
ATOM    999  O2'   A A  45      -0.390  20.474  26.018  1.00  0.00    -0.388 OA
ATOM   1000 'HO2   A A  45      -0.410  19.533  26.202  1.00  0.00     0.210 HD
ATOM   1001  C4    A A  45      -3.049  23.638  24.501  1.00  0.00     0.167 A 
ATOM   1002  C8    A A  45      -3.721  22.151  23.039  1.00  0.00     0.214 A 
ATOM   1003  C5    A A  45      -4.228  24.029  23.894  1.00  0.00     0.149 A 
ATOM   1004  N3    A A  45      -2.364  24.313  25.441  1.00  0.00    -0.222 NA
ATOM   1005  N7    A A  45      -4.643  23.080  22.971  1.00  0.00    -0.236 NA
ATOM   1006  C6    A A  45      -4.775  25.259  24.296  1.00  0.00     0.155 A 
ATOM   1007  N6    A A  45      -5.909  25.760  23.803  1.00  0.00    -0.382 N 
ATOM   1008  N1    A A  45      -4.111  25.965  25.235  1.00  0.00    -0.222 NA
ATOM   1009  H62   A A  45      -6.260  26.651  24.126  1.00  0.00     0.157 HD
ATOM   1010  H61   A A  45      -6.419  25.243  23.102  1.00  0.00     0.157 HD
ATOM   1011  C2    A A  45      -2.977  25.458  25.736  1.00  0.00     0.237 A 
ATOM   1012  O3'   A A  45      -2.315  18.495  25.985  1.00  0.00    -0.279 OA
ATOM   1013  OP1   A A  45      -5.421  17.642  21.402  1.00  0.00    -0.624 OA
ATOM   1014  OP2   A A  45      -4.835  16.451  23.597  1.00  0.00    -0.624 OA
BRANCH 1012 1015
ATOM   1015  P     C A  46      -3.454  18.163  27.070  1.00  0.00     0.408 P 
ATOM   1016  OP1   C A  46      -4.755  18.591  26.496  1.00  0.00    -0.624 OA
ATOM   1017  OP2   C A  46      -3.024  18.695  28.388  1.00  0.00    -0.624 OA
BRANCH 1015 1018
ATOM   1018  O5'   C A  46      -3.451  16.571  27.155  1.00  0.00    -0.287 OA
BRANCH 1018 1019
ATOM   1019  C5'   C A  46      -2.294  15.822  26.788  1.00  0.00     0.216 C 
BRANCH 1019 1020
ATOM   1020  C4'   C A  46      -1.973  14.802  27.855  1.00  0.00     0.180 C 
ATOM   1021  O4'   C A  46      -3.173  14.520  28.628  1.00  0.00    -0.353 OA
ATOM   1022  C1'   C A  46      -3.192  13.150  28.995  1.00  0.00     0.264 C 
ATOM   1023  C2'   C A  46      -1.869  12.539  28.533  1.00  0.00     0.199 C 
ATOM   1024  C3'   C A  46      -1.533  13.436  27.351  1.00  0.00     0.198 C 
BRANCH 1022 1025
ATOM   1025  N1    C A  46      -4.378  12.519  28.390  1.00  0.00    -0.278 N 
ATOM   1026  C6    C A  46      -5.273  13.257  27.665  1.00  0.00     0.102 A 
ATOM   1027  C5    C A  46      -6.355  12.689  27.118  1.00  0.00     0.067 A 
ATOM   1028  C4    C A  46      -6.532  11.289  27.318  1.00  0.00     0.128 A 
ATOM   1029  N3    C A  46      -5.662  10.559  28.018  1.00  0.00    -0.177 NA
ATOM   1030  N4    C A  46      -7.589  10.666  26.800  1.00  0.00    -0.384 N 
ATOM   1031  C2    C A  46      -4.576  11.147  28.567  1.00  0.00     0.352 A 
ATOM   1032  O2    C A  46      -3.749  10.500  29.226  1.00  0.00    -0.244 OA
ATOM   1033  H42   C A  46      -7.704   9.672  26.943  1.00  0.00     0.157 HD
ATOM   1034  H41   C A  46      -8.272  11.182  26.264  1.00  0.00     0.157 HD
ENDBRANCH 1022 1025
BRANCH 1023 1035
ATOM   1035  O2'   C A  46      -0.917  12.682  29.570  1.00  0.00    -0.388 OA
ATOM   1036 'HO2   C A  46      -0.514  13.544  29.456  1.00  0.00     0.210 HD
ENDBRANCH 1023 1035
BRANCH 1024 1037
ATOM   1037  O3'   C A  46      -0.148  13.413  27.018  1.00  0.00    -0.279 OA
BRANCH 1037 1038
ATOM   1038  P     G A  47       0.314  12.913  25.562  1.00  0.00     0.408 P 
ATOM   1039  OP2   G A  47      -0.836  13.039  24.630  1.00  0.00    -0.624 OA
ATOM   1040  OP1   G A  47       1.591  13.602  25.245  1.00  0.00    -0.624 OA
BRANCH 1038 1041
ATOM   1041  O5'   G A  47       0.626  11.364  25.765  1.00  0.00    -0.287 OA
BRANCH 1041 1042
ATOM   1042  C5'   G A  47       1.428  10.650  24.827  1.00  0.00     0.216 C 
BRANCH 1042 1043
ATOM   1043  C4'   G A  47       0.878   9.257  24.618  1.00  0.00     0.180 C 
ATOM   1044  O4'   G A  47       1.551   8.328  25.509  1.00  0.00    -0.353 OA
ATOM   1045  C1'   G A  47       0.663   7.276  25.850  1.00  0.00     0.262 C 
ATOM   1046  C2'   G A  47      -0.667   7.552  25.147  1.00  0.00     0.199 C 
ATOM   1047  N9    G A  47       0.546   7.217  27.304  1.00  0.00    -0.293 N 
ATOM   1048  O2'   G A  47      -0.668   6.879  23.901  1.00  0.00    -0.388 OA
ATOM   1049  C3'   G A  47      -0.590   9.061  24.960  1.00  0.00     0.198 C 
ATOM   1050 'HO2   G A  47      -0.951   7.518  23.246  1.00  0.00     0.210 HD
ATOM   1051  O3'   G A  47      -1.449   9.531  23.925  1.00  0.00    -0.279 OA
ATOM   1052  P     A A  48      -2.977   9.900  24.264  1.00  0.00     0.408 P 
ATOM   1053  OP1   A A  48      -3.616  10.337  22.996  1.00  0.00    -0.624 OA
ATOM   1054  O5'   A A  48      -3.627   8.508  24.690  1.00  0.00    -0.287 OA
ATOM   1055  OP2   A A  48      -2.995  10.804  25.442  1.00  0.00    -0.624 OA
ATOM   1056  C5'   A A  48      -3.720   7.430  23.762  1.00  0.00     0.216 C 
ATOM   1057  C4'   A A  48      -4.221   6.182  24.453  1.00  0.00     0.180 C 
ATOM   1058  O4'   A A  48      -3.316   5.814  25.525  1.00  0.00    -0.353 OA
ATOM   1059  C3'   A A  48      -5.556   6.304  25.166  1.00  0.00     0.198 C 
ATOM   1060  C1'   A A  48      -4.036   5.102  26.520  1.00  0.00     0.262 C 
ATOM   1061  N9    A A  48      -3.783   5.726  27.818  1.00  0.00    -0.294 N 
ATOM   1062  C2'   A A  48      -5.513   5.114  26.118  1.00  0.00     0.199 C 
ATOM   1063  C8    A A  48      -3.133   6.905  28.084  1.00  0.00     0.214 A 
ATOM   1064  C4    A A  48      -4.168   5.227  29.041  1.00  0.00     0.167 A 
ATOM   1065  N7    A A  48      -3.068   7.199  29.361  1.00  0.00    -0.236 NA
ATOM   1066  C5    A A  48      -3.723   6.141  29.978  1.00  0.00     0.149 A 
ATOM   1067  C6    A A  48      -3.997   5.855  31.328  1.00  0.00     0.155 A 
ATOM   1068  N6    A A  48      -3.628   6.638  32.342  1.00  0.00    -0.382 N 
ATOM   1069  N1    A A  48      -4.671   4.717  31.605  1.00  0.00    -0.222 NA
ATOM   1070  H61   A A  48      -3.123   7.492  32.157  1.00  0.00     0.157 HD
ATOM   1071  H62   A A  48      -3.856   6.382  33.292  1.00  0.00     0.157 HD
ATOM   1072  C2    A A  48      -5.039   3.927  30.587  1.00  0.00     0.237 A 
ATOM   1073  N3    A A  48      -4.838   4.088  29.281  1.00  0.00    -0.222 NA
ATOM   1074  O2'   A A  48      -5.805   3.907  25.441  1.00  0.00    -0.388 OA
ATOM   1075 'HO2   A A  48      -6.254   4.147  24.631  1.00  0.00     0.210 HD
ATOM   1076  O3'   A A  48      -6.654   6.241  24.260  1.00  0.00    -0.279 OA
ATOM   1077  P     G A  49      -8.085   6.836  24.694  1.00  0.00     0.408 P 
ATOM   1078  OP1   G A  49      -8.928   6.889  23.473  1.00  0.00    -0.624 OA
ATOM   1079  OP2   G A  49      -7.866   8.073  25.488  1.00  0.00    -0.624 OA
ATOM   1080  O5'   G A  49      -8.687   5.724  25.664  1.00  0.00    -0.287 OA
ATOM   1081  C5'   G A  49      -8.938   4.401  25.193  1.00  0.00     0.216 C 
ATOM   1082  C4'   G A  49      -9.554   3.562  26.287  1.00  0.00     0.180 C 
ATOM   1083  O4'   G A  49      -8.560   3.303  27.315  1.00  0.00    -0.353 OA
ATOM   1084  C3'   G A  49     -10.698   4.203  27.056  1.00  0.00     0.198 C 
ATOM   1085  C1'   G A  49      -9.201   3.211  28.579  1.00  0.00     0.262 C 
ATOM   1086  C2'   G A  49     -10.701   3.394  28.345  1.00  0.00     0.199 C 
ATOM   1087  N9    G A  49      -8.628   4.221  29.464  1.00  0.00    -0.293 N 
ATOM   1088  O2'   G A  49     -11.289   2.122  28.147  1.00  0.00    -0.388 OA
ATOM   1089 'HO2   G A  49     -11.808   2.182  27.345  1.00  0.00     0.210 HD
ATOM   1090  C8    G A  49      -7.909   5.334  29.103  1.00  0.00     0.214 A 
ATOM   1091  C4    G A  49      -8.710   4.241  30.834  1.00  0.00     0.187 A 
ATOM   1092  N7    G A  49      -7.531   6.055  30.123  1.00  0.00    -0.234 NA
ATOM   1093  C5    G A  49      -8.031   5.376  31.226  1.00  0.00     0.173 A 
ATOM   1094  C6    G A  49      -7.944   5.675  32.610  1.00  0.00     0.292 A 
ATOM   1095  O6    G A  49      -7.385   6.632  33.160  1.00  0.00    -0.265 OA
ATOM   1096  N1    G A  49      -8.597   4.721  33.381  1.00  0.00    -0.153 N 
ATOM   1097  H1    G A  49      -8.591   4.850  34.380  1.00  0.00     0.187 HD
ATOM   1098  C2    G A  49      -9.247   3.620  32.887  1.00  0.00     0.703 A 
ATOM   1099  N3    G A  49      -9.335   3.327  31.604  1.00  0.00    -0.044 NA
ATOM   1100  N2    G A  49      -9.815   2.818  33.790  1.00  0.00    -0.233 N 
ATOM   1101  H21   G A  49     -10.307   1.993  33.480  1.00  0.00     0.174 HD
ATOM   1102  H22   G A  49      -9.756   3.036  34.775  1.00  0.00     0.174 HD
ATOM   1103  O3'   G A  49     -11.934   4.115  26.352  1.00  0.00    -0.279 OA
ATOM   1104  P     C A  50     -13.103   5.176  26.658  1.00  0.00     0.408 P 
ATOM   1105  OP1   C A  50     -14.288   4.772  25.858  1.00  0.00    -0.624 OA
ATOM   1106  OP2   C A  50     -12.548   6.545  26.505  1.00  0.00    -0.624 OA
ATOM   1107  O5'   C A  50     -13.441   4.947  28.199  1.00  0.00    -0.287 OA
ATOM   1108  C5'   C A  50     -14.033   3.728  28.646  1.00  0.00     0.216 C 
ATOM   1109  C4'   C A  50     -14.059   3.681  30.156  1.00  0.00     0.180 C 
ATOM   1110  O4'   C A  50     -12.714   3.846  30.675  1.00  0.00    -0.353 OA
ATOM   1111  C3'   C A  50     -14.832   4.793  30.847  1.00  0.00     0.198 C 
ATOM   1112  C1'   C A  50     -12.776   4.447  31.958  1.00  0.00     0.264 C 
ATOM   1113  N1    C A  50     -11.914   5.641  31.965  1.00  0.00    -0.278 N 
ATOM   1114  C2'   C A  50     -14.246   4.758  32.253  1.00  0.00     0.199 C 
ATOM   1115  C6    C A  50     -11.419   6.160  30.801  1.00  0.00     0.102 A 
ATOM   1116  C2    C A  50     -11.610   6.242  33.189  1.00  0.00     0.352 A 
ATOM   1117  C5    C A  50     -10.635   7.246  30.807  1.00  0.00     0.067 A 
ATOM   1118  C4    C A  50     -10.343   7.837  32.071  1.00  0.00     0.128 A 
ATOM   1119  N4    C A  50      -9.569   8.918  32.144  1.00  0.00    -0.384 N 
ATOM   1120  N3    C A  50     -10.823   7.339  33.211  1.00  0.00    -0.177 NA
ATOM   1121  H42   C A  50      -9.367   9.325  33.047  1.00  0.00     0.157 HD
ATOM   1122  H41   C A  50      -9.184   9.328  31.305  1.00  0.00     0.157 HD
ATOM   1123  O2    C A  50     -12.071   5.752  34.230  1.00  0.00    -0.244 OA
ATOM   1124  O2'   C A  50     -14.789   3.690  33.007  1.00  0.00    -0.388 OA
ATOM   1125 'HO2   C A  50     -15.549   3.369  32.521  1.00  0.00     0.210 HD
ATOM   1126  O3'   C A  50     -16.236   4.555  30.835  1.00  0.00    -0.279 OA
ATOM   1127  P     C A  51     -17.256   5.785  31.038  1.00  0.00     0.408 P 
ATOM   1128  OP1   C A  51     -18.633   5.244  30.912  1.00  0.00    -0.624 OA
ATOM   1129  OP2   C A  51     -16.823   6.903  30.160  1.00  0.00    -0.624 OA
ATOM   1130  O5'   C A  51     -17.031   6.228  32.551  1.00  0.00    -0.287 OA
ATOM   1131  C5'   C A  51     -17.288   5.326  33.627  1.00  0.00     0.216 C 
ATOM   1132  C4'   C A  51     -17.053   6.010  34.954  1.00  0.00     0.180 C 
ATOM   1133  O4'   C A  51     -15.630   6.235  35.133  1.00  0.00    -0.353 OA
ATOM   1134  C3'   C A  51     -17.658   7.398  35.099  1.00  0.00     0.198 C 
ATOM   1135  C1'   C A  51     -15.428   7.422  35.883  1.00  0.00     0.264 C 
ATOM   1136  N1    C A  51     -14.570   8.328  35.101  1.00  0.00    -0.278 N 
ATOM   1137  C2'   C A  51     -16.804   8.008  36.205  1.00  0.00     0.199 C 
ATOM   1138  C6    C A  51     -14.482   8.213  33.742  1.00  0.00     0.102 A 
ATOM   1139  C2    C A  51     -13.843   9.312  35.773  1.00  0.00     0.352 A 
ATOM   1140  C5    C A  51     -13.696   9.030  33.029  1.00  0.00     0.067 A 
ATOM   1141  C4    C A  51     -12.962  10.022  33.743  1.00  0.00     0.128 A 
ATOM   1142  N4    C A  51     -12.159  10.862  33.092  1.00  0.00    -0.384 N 
ATOM   1143  N3    C A  51     -13.047  10.145  35.068  1.00  0.00    -0.177 NA
ATOM   1144  H41   C A  51     -12.063  10.806  32.089  1.00  0.00     0.157 HD
ATOM   1145  H42   C A  51     -11.643  11.557  33.614  1.00  0.00     0.157 HD
ATOM   1146  O2    C A  51     -13.945   9.399  37.005  1.00  0.00    -0.244 OA
ATOM   1147  O2'   C A  51     -17.207   7.540  37.478  1.00  0.00    -0.388 OA
ATOM   1148 'HO2   C A  51     -17.899   6.895  37.330  1.00  0.00     0.210 HD
ATOM   1149  O3'   C A  51     -19.039   7.339  35.448  1.00  0.00    -0.279 OA
ATOM   1150  P     C A  52     -19.990   8.606  35.168  1.00  0.00     0.408 P 
ATOM   1151  OP1   C A  52     -21.388   8.177  35.420  1.00  0.00    -0.624 OA
ATOM   1152  OP2   C A  52     -19.626   9.188  33.851  1.00  0.00    -0.624 OA
ATOM   1153  O5'   C A  52     -19.583   9.654  36.299  1.00  0.00    -0.287 OA
ATOM   1154  C5'   C A  52     -19.677   9.317  37.683  1.00  0.00     0.216 C 
ATOM   1155  C4'   C A  52     -19.170  10.458  38.533  1.00  0.00     0.180 C 
ATOM   1156  O4'   C A  52     -17.721  10.496  38.454  1.00  0.00    -0.353 OA
ATOM   1157  C3'   C A  52     -19.610  11.847  38.096  1.00  0.00     0.182 C 
ATOM   1158  C1'   C A  52     -17.276  11.841  38.489  1.00  0.00     0.264 C 
ATOM   1159  N1    C A  52     -16.510  12.106  37.260  1.00  0.00    -0.278 N 
ATOM   1160  C2'   C A  52     -18.505  12.738  38.656  1.00  0.00     0.198 C 
ATOM   1161  C6    C A  52     -16.914  11.595  36.058  1.00  0.00     0.102 A 
ATOM   1162  C2    C A  52     -15.358  12.892  37.342  1.00  0.00     0.352 A 
ATOM   1163  C5    C A  52     -16.217  11.831  34.939  1.00  0.00     0.067 A 
ATOM   1164  C4    C A  52     -15.044  12.632  35.052  1.00  0.00     0.128 A 
ATOM   1165  N4    C A  52     -14.308  12.901  33.975  1.00  0.00    -0.384 N 
ATOM   1166  N3    C A  52     -14.644  13.137  36.220  1.00  0.00    -0.177 NA
ATOM   1167  H41   C A  52     -14.575  12.539  33.072  1.00  0.00     0.157 HD
ATOM   1168  H42   C A  52     -13.477  13.468  34.073  1.00  0.00     0.157 HD
ATOM   1169  O2    C A  52     -15.017  13.347  38.442  1.00  0.00    -0.244 OA
ATOM   1170  O2'   C A  52     -18.700  12.988  40.036  1.00  0.00    -0.388 OA
ATOM   1171 'HO2   C A  52     -19.644  12.960  40.195  1.00  0.00     0.210 HD
ATOM   1172  O3'   C A  52     -20.901  12.193  38.607  1.00  0.00    -0.390 OA
ATOM   1173 'HO3   C A  52     -21.487  11.456  38.417  1.00  0.00     0.210 HD
ATOM   1174  C4    G A  47       0.038   6.172  28.037  1.00  0.00     0.187 A 
ATOM   1175  C8    G A  47       0.907   8.184  28.210  1.00  0.00     0.214 A 
ATOM   1176  N3    G A  47      -0.437   5.012  27.539  1.00  0.00    -0.044 NA
ATOM   1177  C5    G A  47       0.120   6.574  29.354  1.00  0.00     0.173 A 
ATOM   1178  C2    G A  47      -0.864   4.203  28.491  1.00  0.00     0.703 A 
ATOM   1179  N2    G A  47      -1.368   3.011  28.170  1.00  0.00    -0.233 N 
ATOM   1180  N1    G A  47      -0.827   4.505  29.828  1.00  0.00    -0.153 N 
ATOM   1181  H21   G A  47      -1.419   2.738  27.200  1.00  0.00     0.174 HD
ATOM   1182  H22   G A  47      -1.703   2.388  28.894  1.00  0.00     0.174 HD
ATOM   1183  C6    G A  47      -0.342   5.691  30.367  1.00  0.00     0.292 A 
ATOM   1184  H1    G A  47      -1.177   3.816  30.476  1.00  0.00     0.187 HD
ATOM   1185  O6    G A  47      -0.355   5.862  31.592  1.00  0.00    -0.265 OA
ATOM   1186  N7    G A  47       0.673   7.844  29.448  1.00  0.00    -0.234 NA
ENDBRANCH 1042 1043
ENDBRANCH 1041 1042
ENDBRANCH 1038 1041
ENDBRANCH 1037 1038
ENDBRANCH 1024 1037
ENDBRANCH 1019 1020
ENDBRANCH 1018 1019
ENDBRANCH 1015 1018
ENDBRANCH 1012 1015
ENDBRANCH 989 990
ENDBRANCH 956 989
BRANCH 958 1187
ATOM   1187  O2'   G A  44      -7.615  19.089  25.819  1.00  0.00    -0.388 OA
ATOM   1188 'HO2   G A  44      -7.348  19.644  25.086  1.00  0.00     0.210 HD
ENDBRANCH 958 1187
ENDBRANCH 942 943
ENDBRANCH 941 942
ENDBRANCH 938 941
ENDBRANCH 937 938
ENDBRANCH 922 937
ENDBRANCH 840 846
BRANCH 843 1189
ATOM   1189  N9    A A  38     -26.224  17.581  36.428  1.00  0.00    -0.294 N 
ATOM   1190  C4    A A  38     -25.593  17.229  37.597  1.00  0.00     0.167 A 
ATOM   1191  N3    A A  38     -25.715  17.821  38.798  1.00  0.00    -0.222 NA
ATOM   1192  C5    A A  38     -24.801  16.140  37.286  1.00  0.00     0.149 A 
ATOM   1193  C2    A A  38     -24.952  17.210  39.701  1.00  0.00     0.237 A 
ATOM   1194  N1    A A  38     -24.143  16.156  39.551  1.00  0.00    -0.222 NA
ATOM   1195  C6    A A  38     -24.042  15.585  38.332  1.00  0.00     0.155 A 
ATOM   1196  N6    A A  38     -23.233  14.536  38.185  1.00  0.00    -0.382 N 
ATOM   1197  H62   A A  38     -22.715  14.192  38.981  1.00  0.00     0.157 HD
ATOM   1198  H61   A A  38     -23.141  14.093  37.283  1.00  0.00     0.157 HD
ATOM   1199  N7    A A  38     -24.930  15.807  35.944  1.00  0.00    -0.236 NA
ATOM   1200  C8    A A  38     -25.782  16.690  35.482  1.00  0.00     0.214 A 
ENDBRANCH 843 1189
ENDBRANCH 838 839
ENDBRANCH 837 838
ENDBRANCH 834 837
ENDBRANCH 833 834
ENDBRANCH 818 833
ENDBRANCH 813 814
ENDBRANCH 796 813
ENDBRANCH 765 766
ENDBRANCH 764 765
ENDBRANCH 761 764
ENDBRANCH 760 761
ENDBRANCH 696 760
BRANCH 755 1201
ATOM   1201  N9    A A  29      -9.455 -12.890  37.390  1.00  0.00    -0.294 N 
ATOM   1202  C8    A A  29      -9.086 -14.114  36.888  1.00  0.00     0.214 A 
ATOM   1203  N7    A A  29      -7.936 -14.101  36.259  1.00  0.00    -0.236 NA
ATOM   1204  C5    A A  29      -7.521 -12.779  36.351  1.00  0.00     0.149 A 
ATOM   1205  C4    A A  29      -8.448 -12.022  37.043  1.00  0.00     0.167 A 
ATOM   1206  C6    A A  29      -6.377 -12.112  35.880  1.00  0.00     0.155 A 
ATOM   1207  N3    A A  29      -8.373 -10.709  37.318  1.00  0.00    -0.222 NA
ATOM   1208  C2    A A  29      -7.253 -10.189  36.822  1.00  0.00     0.237 A 
ATOM   1209  N1    A A  29      -6.271 -10.789  36.136  1.00  0.00    -0.222 NA
ATOM   1210  N6    A A  29      -5.397 -12.709  35.203  1.00  0.00    -0.382 N 
ATOM   1211  H61   A A  29      -5.456 -13.697  35.002  1.00  0.00     0.157 HD
ATOM   1212  H62   A A  29      -4.601 -12.175  34.881  1.00  0.00     0.157 HD
ENDBRANCH 755 1201
ENDBRANCH 627 628
ENDBRANCH 626 627
ENDBRANCH 623 626
ENDBRANCH 622 623
ENDBRANCH 592 622
BRANCH 594 1213
ATOM   1213  O2'   G A  28      -8.163 -12.523  43.151  1.00  0.00    -0.388 OA
ATOM   1214 'HO2   G A  28      -7.487 -11.846  43.126  1.00  0.00     0.210 HD
ENDBRANCH 594 1213
BRANCH 604 1215
ATOM   1215  N2    G A  28      -6.153 -11.075  48.110  1.00  0.00    -0.233 N 
ATOM   1216  H21   G A  28      -5.534 -11.447  47.406  1.00  0.00     0.174 HD
ATOM   1217  H22   G A  28      -5.931 -11.180  49.090  1.00  0.00     0.174 HD
ENDBRANCH 604 1215
ENDBRANCH 552 553
ENDBRANCH 549 552
ENDBRANCH 548 549
ENDBRANCH 544 548
BRANCH 545 1218
ATOM   1218  O2'   C A  25     -15.310   0.421  49.744  1.00  0.00    -0.388 OA
ATOM   1219 'HO2   C A  25     -14.497   0.719  50.153  1.00  0.00     0.210 HD
ENDBRANCH 545 1218
BRANCH 546 1220
ATOM   1220  N1    C A  25     -16.461  -2.220  52.006  1.00  0.00    -0.278 N 
ATOM   1221  C2    C A  25     -15.760  -2.055  53.201  1.00  0.00     0.352 A 
ATOM   1222  N3    C A  25     -15.614  -3.109  54.034  1.00  0.00    -0.177 NA
ATOM   1223  O2    C A  25     -15.286  -0.943  53.470  1.00  0.00    -0.244 OA
ATOM   1224  C4    C A  25     -16.142  -4.290  53.712  1.00  0.00     0.128 A 
ATOM   1225  C5    C A  25     -16.868  -4.487  52.502  1.00  0.00     0.067 A 
ATOM   1226  N4    C A  25     -15.973  -5.299  54.564  1.00  0.00    -0.384 N 
ATOM   1227  C6    C A  25     -16.999  -3.435  51.684  1.00  0.00     0.102 A 
ATOM   1228  H42   C A  25     -15.456  -5.152  55.419  1.00  0.00     0.157 HD
ATOM   1229  H41   C A  25     -16.358  -6.209  54.357  1.00  0.00     0.157 HD
ENDBRANCH 546 1220
ENDBRANCH 513 543
ENDBRANCH 367 368
ENDBRANCH 364 367
ENDBRANCH 363 364
ENDBRANCH 360 363
ENDBRANCH 346 347
ENDBRANCH 345 346
ENDBRANCH 342 345
ENDBRANCH 341 342
ENDBRANCH 317 341
ENDBRANCH 251 252
ENDBRANCH 250 251
ENDBRANCH 247 250
ENDBRANCH 246 247
ENDBRANCH 223 246
ENDBRANCH 206 207
ENDBRANCH 205 206
ENDBRANCH 202 205
ENDBRANCH 201 202
ENDBRANCH 179 201
BRANCH 197 1230
ATOM   1230  N9    G A   9     -23.342  -1.787  36.822  1.00  0.00    -0.293 N 
ATOM   1231  C4    G A   9     -22.723  -1.026  37.784  1.00  0.00     0.187 A 
ATOM   1232  N3    G A   9     -21.420  -0.676  37.800  1.00  0.00    -0.044 NA
ATOM   1233  C5    G A   9     -23.709  -0.714  38.696  1.00  0.00     0.173 A 
ATOM   1234  C2    G A   9     -21.120   0.057  38.856  1.00  0.00     0.703 A 
ATOM   1235  N1    G A   9     -22.024   0.423  39.820  1.00  0.00    -0.153 N 
ATOM   1236  C6    G A   9     -23.371   0.078  39.824  1.00  0.00     0.292 A 
ATOM   1237  H1    G A   9     -21.689   0.986  40.585  1.00  0.00     0.187 HD
ATOM   1238  O6    G A   9     -24.101   0.466  40.744  1.00  0.00    -0.265 OA
ATOM   1239  N7    G A   9     -24.925  -1.267  38.315  1.00  0.00    -0.234 NA
ATOM   1240  C8    G A   9     -24.658  -1.893  37.202  1.00  0.00     0.214 A 
BRANCH 1234 1241
ATOM   1241  N2    G A   9     -19.869   0.489  39.028  1.00  0.00    -0.233 N 
ATOM   1242  H21   G A   9     -19.549   1.298  38.516  1.00  0.00     0.174 HD
ATOM   1243  H22   G A   9     -19.246   0.006  39.662  1.00  0.00     0.174 HD
ENDBRANCH 1234 1241
ENDBRANCH 197 1230
ENDBRANCH 165 166
ENDBRANCH 162 165
ENDBRANCH 137 162
ENDBRANCH 113 117
BRANCH 114 1244
ATOM   1244  O2'   G A   6     -28.121   6.709  39.035  1.00  0.00    -0.388 OA
ATOM   1245 'HO2   G A   6     -27.499   6.980  38.360  1.00  0.00     0.210 HD
ENDBRANCH 114 1244
BRANCH 115 1246
ATOM   1246  N9    G A   6     -29.814   9.716  37.876  1.00  0.00    -0.293 N 
ATOM   1247  C8    G A   6     -29.075  10.718  38.457  1.00  0.00     0.214 A 
ATOM   1248  N7    G A   6     -29.564  11.908  38.245  1.00  0.00    -0.234 NA
ATOM   1249  C5    G A   6     -30.695  11.680  37.473  1.00  0.00     0.173 A 
ATOM   1250  C4    G A   6     -30.862  10.332  37.236  1.00  0.00     0.187 A 
ATOM   1251  C6    G A   6     -31.640  12.591  36.931  1.00  0.00     0.292 A 
ATOM   1252  N3    G A   6     -31.834   9.715  36.530  1.00  0.00    -0.044 NA
ATOM   1253  C2    G A   6     -32.704  10.576  36.032  1.00  0.00     0.703 A 
ATOM   1254  N2    G A   6     -33.732  10.135  35.303  1.00  0.00    -0.233 N 
ATOM   1255  N1    G A   6     -32.630  11.933  36.211  1.00  0.00    -0.153 N 
ATOM   1256  H22   G A   6     -34.401  10.788  34.919  1.00  0.00     0.174 HD
ATOM   1257  H21   G A   6     -33.837   9.144  35.138  1.00  0.00     0.174 HD
ATOM   1258  H1    G A   6     -33.349  12.500  35.788  1.00  0.00     0.187 HD
ATOM   1259  O6    G A   6     -31.667  13.823  37.027  1.00  0.00    -0.265 OA
ENDBRANCH 115 1246
ENDBRANCH 111 112
ENDBRANCH 110 111
ENDBRANCH 107 110
ENDBRANCH 106 107
ENDBRANCH 102 106
BRANCH 103 1260
ATOM   1260  O2'   C A   5     -35.933   5.686  40.204  1.00  0.00    -0.388 OA
ATOM   1261 'HO2   C A   5     -35.604   5.972  39.350  1.00  0.00     0.210 HD
ENDBRANCH 103 1260
BRANCH 104 1262
ATOM   1262  N1    C A   5     -37.588   2.550  40.886  1.00  0.00    -0.278 N 
ATOM   1263  C2    C A   5     -37.621   2.689  42.275  1.00  0.00     0.352 A 
ATOM   1264  O2    C A   5     -37.431   3.808  42.772  1.00  0.00    -0.244 OA
ATOM   1265  N3    C A   5     -37.859   1.604  43.044  1.00  0.00    -0.177 NA
ATOM   1266  C4    C A   5     -38.064   0.416  42.475  1.00  0.00     0.128 A 
ATOM   1267  N4    C A   5     -38.297  -0.623  43.275  1.00  0.00    -0.384 N 
ATOM   1268  C5    C A   5     -38.038   0.242  41.060  1.00  0.00     0.067 A 
ATOM   1269  H42   C A   5     -38.307  -0.492  44.278  1.00  0.00     0.157 HD
ATOM   1270  H41   C A   5     -38.457  -1.541  42.888  1.00  0.00     0.157 HD
ATOM   1271  C6    C A   5     -37.797   1.327  40.311  1.00  0.00     0.102 A 
ENDBRANCH 104 1262
ENDBRANCH 100 101
ENDBRANCH  99 100
ENDBRANCH  96  99
ENDBRANCH  95  96
ENDBRANCH  67  95
ENDBRANCH  24  27
ENDBRANCH  23  24
ENDBRANCH  22  23
BRANCH  21 1272
ATOM   1272  O2'   G A   1     -45.823   1.712  47.343  1.00  0.00    -0.388 OA
ATOM   1273 'HO2   G A   1     -46.446   1.189  47.849  1.00  0.00     0.210 HD
ENDBRANCH  21 1272
TORSDOF 402
ENDMDL
MODEL 8
REMARK VINA RESULT:      -1.0      4.396      9.429
REMARK WARNING: 32 MAX_TORS EXCEEDED!!!
REMARK  101 active torsions:
REMARK  status: ('A' for Active; 'I' for Inactive)
REMARK       I    between atoms: O5'_2  and  C5'_3 
REMARK       I    between atoms: C5'_3  and  C4'_4 
REMARK       I    between atoms: C1'_6  and  N9_7 
REMARK       I    between atoms: C2_10  and  N2_11 
REMARK    1  A    between atoms: C2'_21  and  O2'_22 
REMARK    2  A    between atoms: C3'_24  and  O3'_25 
REMARK    3  A    between atoms: O3'_25  and  P_26 
REMARK    4  A    between atoms: P_26  and  O5'_29 
REMARK       I    between atoms: O5'_29  and  C5'_30 
REMARK       I    between atoms: C5'_30  and  C4'_31 
REMARK       I    between atoms: C1'_33  and  N9_34 
REMARK       I    between atoms: C2_37  and  N2_38 
REMARK       I    between atoms: C2'_48  and  O2'_49 
REMARK       I    between atoms: C3'_51  and  O3'_52 
REMARK       I    between atoms: O3'_52  and  P_53 
REMARK       I    between atoms: P_53  and  O5'_56 
REMARK       I    between atoms: O5'_56  and  C5'_57 
REMARK       I    between atoms: C5'_57  and  C4'_58 
REMARK       I    between atoms: C1'_60  and  N1_61 
REMARK       I    between atoms: C4_66  and  N4_67 
REMARK       I    between atoms: C2'_71  and  O2'_72 
REMARK       I    between atoms: C3'_74  and  O3'_75 
REMARK       I    between atoms: O3'_75  and  P_76 
REMARK       I    between atoms: P_76  and  O5'_79 
REMARK       I    between atoms: O5'_79  and  C5'_80 
REMARK       I    between atoms: C5'_80  and  C4'_81 
REMARK       I    between atoms: C1'_83  and  N1_84 
REMARK       I    between atoms: C2'_93  and  O2'_94 
REMARK    5  A    between atoms: C3'_96  and  O3'_97 
REMARK    6  A    between atoms: O3'_97  and  P_98 
REMARK    7  A    between atoms: P_98  and  O5'_101 
REMARK    8  A    between atoms: O5'_101  and  C5'_102 
REMARK    9  A    between atoms: C5'_102  and  C4'_103 
REMARK   10  A    between atoms: C1'_105  and  N1_106 
REMARK       I    between atoms: C4_111  and  N4_112 
REMARK   11  A    between atoms: C2'_116  and  O2'_117 
REMARK   12  A    between atoms: C3'_119  and  O3'_120 
REMARK   13  A    between atoms: O3'_120  and  P_121 
REMARK   14  A    between atoms: P_121  and  O5'_124 
REMARK   15  A    between atoms: O5'_124  and  C5'_125 
REMARK   16  A    between atoms: C5'_125  and  C4'_126 
REMARK   17  A    between atoms: C1'_128  and  N9_129 
REMARK       I    between atoms: C2_132  and  N2_133 
REMARK   18  A    between atoms: C2'_143  and  O2'_144 
REMARK   19  A    between atoms: C3'_146  and  O3'_147 
REMARK       I    between atoms: O3'_147  and  P_148 
REMARK       I    between atoms: P_148  and  O5'_151 
REMARK       I    between atoms: O5'_151  and  C5'_152 
REMARK       I    between atoms: C5'_152  and  C4'_153 
REMARK       I    between atoms: C1'_155  and  N1_156 
REMARK       I    between atoms: C2'_165  and  O2'_166 
REMARK       I    between atoms: C3'_168  and  O3'_169 
REMARK       I    between atoms: O3'_169  and  P_170 
REMARK       I    between atoms: P_170  and  O5'_173 
REMARK       I    between atoms: O5'_173  and  C5'_174 
REMARK       I    between atoms: C5'_174  and  C4'_175 
REMARK       I    between atoms: C1'_177  and  N1_178 
REMARK       I    between atoms: C2'_187  and  O2'_188 
REMARK       I    between atoms: C3'_190  and  O3'_191 
REMARK   20  A    between atoms: O3'_191  and  P_192 
REMARK   21  A    between atoms: P_192  and  O5'_195 
REMARK   22  A    between atoms: O5'_195  and  C5'_196 
REMARK       I    between atoms: C5'_196  and  C4'_197 
REMARK   23  A    between atoms: C1'_199  and  N9_200 
REMARK   24  A    between atoms: C2_203  and  N2_204 
REMARK       I    between atoms: C2'_214  and  O2'_215 
REMARK       I    between atoms: C3'_217  and  O3'_218 
REMARK       I    between atoms: O3'_218  and  P_219 
REMARK       I    between atoms: P_219  and  O5'_222 
REMARK       I    between atoms: O5'_222  and  C5'_223 
REMARK       I    between atoms: C5'_223  and  C4'_224 
REMARK       I    between atoms: C1'_226  and  N9_227 
REMARK       I    between atoms: C2_230  and  N2_231 
REMARK   25  A    between atoms: C2'_241  and  O2'_242 
REMARK   26  A    between atoms: C3'_244  and  O3'_245 
REMARK   27  A    between atoms: O3'_245  and  P_246 
REMARK   28  A    between atoms: P_246  and  O5'_249 
REMARK   29  A    between atoms: O5'_249  and  C5'_250 
REMARK   30  A    between atoms: C5'_250  and  C4'_251 
REMARK       I    between atoms: C1'_253  and  N1_254 
REMARK       I    between atoms: C2'_263  and  O2'_264 
REMARK       I    between atoms: C3'_266  and  O3'_267 
REMARK       I    between atoms: O3'_267  and  P_268 
REMARK       I    between atoms: P_268  and  O5'_271 
REMARK       I    between atoms: O5'_271  and  C5'_272 
REMARK       I    between atoms: C5'_272  and  C4'_273 
REMARK       I    between atoms: C1'_275  and  N1_276 
REMARK       I    between atoms: C4_281  and  N4_282 
REMARK   31  A    between atoms: C2'_286  and  O2'_287 
REMARK   32  A    between atoms: C3'_289  and  O3'_290 
REMARK   33  A    between atoms: O3'_290  and  P_291 
REMARK   34  A    between atoms: P_291  and  O5'_294 
REMARK   35  A    between atoms: O5'_294  and  C5'_295 
REMARK   36  A    between atoms: C5'_295  and  C4'_296 
REMARK   37  A    between atoms: C1'_298  and  N1_299 
REMARK       I    between atoms: C2'_308  and  O2'_309 
REMARK       I    between atoms: C3'_311  and  O3'_312 
REMARK       I    between atoms: O3'_312  and  P_313 
REMARK       I    between atoms: P_313  and  O5'_316 
REMARK       I    between atoms: O5'_316  and  C5'_317 
REMARK       I    between atoms: C5'_317  and  C4'_318 
REMARK       I    between atoms: C1'_320  and  N1_321 
REMARK       I    between atoms: C4_326  and  N4_327 
REMARK       I    between atoms: C2'_331  and  O2'_332 
REMARK       I    between atoms: C3'_334  and  O3'_335 
REMARK       I    between atoms: O3'_335  and  P_336 
REMARK       I    between atoms: P_336  and  O5'_339 
REMARK       I    between atoms: O5'_339  and  C5'_340 
REMARK       I    between atoms: C5'_340  and  C4'_341 
REMARK       I    between atoms: C1'_343  and  N9_344 
REMARK       I    between atoms: C2_347  and  N2_348 
REMARK       I    between atoms: C2'_358  and  O2'_359 
REMARK       I    between atoms: C3'_361  and  O3'_362 
REMARK       I    between atoms: O3'_362  and  P_363 
REMARK       I    between atoms: P_363  and  O5'_366 
REMARK       I    between atoms: O5'_366  and  C5'_367 
REMARK       I    between atoms: C5'_367  and  C4'_368 
REMARK       I    between atoms: C1'_370  and  N1_371 
REMARK       I    between atoms: C4_376  and  N4_377 
REMARK   38  A    between atoms: C2'_381  and  O2'_382 
REMARK   39  A    between atoms: C3'_384  and  O3'_385 
REMARK   40  A    between atoms: O3'_385  and  P_386 
REMARK   41  A    between atoms: P_386  and  O5'_389 
REMARK   42  A    between atoms: O5'_389  and  C5'_390 
REMARK   43  A    between atoms: C5'_390  and  C4'_391 
REMARK       I    between atoms: C1'_393  and  N1_394 
REMARK       I    between atoms: C2'_403  and  O2'_404 
REMARK   44  A    between atoms: C3'_406  and  O3'_407 
REMARK   45  A    between atoms: O3'_407  and  P_408 
REMARK   46  A    between atoms: P_408  and  O5'_411 
REMARK   47  A    between atoms: O5'_411  and  C5'_412 
REMARK       I    between atoms: C5'_412  and  C4'_413 
REMARK       I    between atoms: C1'_415  and  N1_416 
REMARK       I    between atoms: C2'_425  and  O2'_426 
REMARK       I    between atoms: C3'_428  and  O3'_429 
REMARK       I    between atoms: O3'_429  and  P_430 
REMARK       I    between atoms: P_430  and  O5'_433 
REMARK       I    between atoms: O5'_433  and  C5'_434 
REMARK       I    between atoms: C5'_434  and  C4'_435 
REMARK       I    between atoms: C1'_437  and  N1_438 
REMARK       I    between atoms: C2'_447  and  O2'_448 
REMARK       I    between atoms: C3'_450  and  O3'_451 
REMARK       I    between atoms: O3'_451  and  P_452 
REMARK       I    between atoms: P_452  and  O5'_455 
REMARK       I    between atoms: O5'_455  and  C5'_456 
REMARK       I    between atoms: C5'_456  and  C4'_457 
REMARK       I    between atoms: C1'_459  and  N9_460 
REMARK       I    between atoms: C2_463  and  N2_464 
REMARK       I    between atoms: C2'_474  and  O2'_475 
REMARK       I    between atoms: C3'_477  and  O3'_478 
REMARK       I    between atoms: O3'_478  and  P_479 
REMARK       I    between atoms: P_479  and  O5'_482 
REMARK       I    between atoms: O5'_482  and  C5'_483 
REMARK       I    between atoms: C5'_483  and  C4'_484 
REMARK       I    between atoms: C1'_486  and  N9_487 
REMARK       I    between atoms: C2_490  and  N2_491 
REMARK       I    between atoms: C2'_501  and  O2'_502 
REMARK       I    between atoms: C3'_504  and  O3'_505 
REMARK       I    between atoms: O3'_505  and  P_506 
REMARK       I    between atoms: P_506  and  O5'_509 
REMARK       I    between atoms: O5'_509  and  C5'_510 
REMARK       I    between atoms: C5'_510  and  C4'_511 
REMARK       I    between atoms: C1'_513  and  N9_514 
REMARK       I    between atoms: C2_517  and  N2_518 
REMARK       I    between atoms: C2'_528  and  O2'_529 
REMARK       I    between atoms: C3'_531  and  O3'_532 
REMARK       I    between atoms: O3'_532  and  P_533 
REMARK       I    between atoms: P_533  and  O5'_536 
REMARK       I    between atoms: O5'_536  and  C5'_537 
REMARK       I    between atoms: C5'_537  and  C4'_538 
REMARK       I    between atoms: C1'_540  and  N1_541 
REMARK       I    between atoms: C2'_550  and  O2'_551 
REMARK       I    between atoms: C3'_553  and  O3'_554 
REMARK       I    between atoms: O3'_554  and  P_555 
REMARK       I    between atoms: P_555  and  O5'_558 
REMARK       I    between atoms: O5'_558  and  C5'_559 
REMARK       I    between atoms: C5'_559  and  C4'_560 
REMARK       I    between atoms: C1'_562  and  N9_563 
REMARK       I    between atoms: C2_566  and  N2_567 
REMARK       I    between atoms: C2'_577  and  O2'_578 
REMARK       I    between atoms: C3'_580  and  O3'_581 
REMARK       I    between atoms: O3'_581  and  P_582 
REMARK       I    between atoms: P_582  and  O5'_585 
REMARK       I    between atoms: O5'_585  and  C5'_586 
REMARK   48  A    between atoms: C5'_586  and  C4'_587 
REMARK   49  A    between atoms: C1'_589  and  N1_590 
REMARK       I    between atoms: C4_595  and  N4_596 
REMARK   50  A    between atoms: C2'_600  and  O2'_601 
REMARK   51  A    between atoms: C3'_603  and  O3'_604 
REMARK   52  A    between atoms: O3'_604  and  P_605 
REMARK   53  A    between atoms: P_605  and  O5'_608 
REMARK   54  A    between atoms: O5'_608  and  C5'_609 
REMARK       I    between atoms: C5'_609  and  C4'_610 
REMARK       I    between atoms: C1'_612  and  N9_613 
REMARK       I    between atoms: C2_616  and  N2_617 
REMARK       I    between atoms: C2'_627  and  O2'_628 
REMARK       I    between atoms: C3'_630  and  O3'_631 
REMARK       I    between atoms: O3'_631  and  P_632 
REMARK       I    between atoms: P_632  and  O5'_635 
REMARK       I    between atoms: O5'_635  and  C5'_636 
REMARK       I    between atoms: C5'_636  and  C4'_637 
REMARK       I    between atoms: C1'_639  and  N9_640 
REMARK       I    between atoms: C6_645  and  N6_646 
REMARK       I    between atoms: C2'_652  and  O2'_653 
REMARK       I    between atoms: C3'_655  and  O3'_656 
REMARK       I    between atoms: O3'_656  and  P_657 
REMARK       I    between atoms: P_657  and  O5'_660 
REMARK       I    between atoms: O5'_660  and  C5'_661 
REMARK       I    between atoms: C5'_661  and  C4'_662 
REMARK       I    between atoms: C1'_664  and  N9_665 
REMARK   55  A    between atoms: C2_668  and  N2_669 
REMARK   56  A    between atoms: C2'_679  and  O2'_680 
REMARK   57  A    between atoms: C3'_682  and  O3'_683 
REMARK   58  A    between atoms: O3'_683  and  P_684 
REMARK   59  A    between atoms: P_684  and  O5'_687 
REMARK   60  A    between atoms: O5'_687  and  C5'_688 
REMARK   61  A    between atoms: C5'_688  and  C4'_689 
REMARK   62  A    between atoms: C1'_691  and  N9_692 
REMARK       I    between atoms: C6_697  and  N6_698 
REMARK       I    between atoms: C2'_704  and  O2'_705 
REMARK       I    between atoms: C3'_707  and  O3'_708 
REMARK       I    between atoms: O3'_708  and  P_709 
REMARK       I    between atoms: P_709  and  O5'_712 
REMARK       I    between atoms: O5'_712  and  C5'_713 
REMARK       I    between atoms: C5'_713  and  C4'_714 
REMARK       I    between atoms: C1'_716  and  N9_717 
REMARK       I    between atoms: C2_720  and  N2_721 
REMARK       I    between atoms: C2'_731  and  O2'_732 
REMARK       I    between atoms: C3'_734  and  O3'_735 
REMARK       I    between atoms: O3'_735  and  P_736 
REMARK       I    between atoms: P_736  and  O5'_739 
REMARK       I    between atoms: O5'_739  and  C5'_740 
REMARK       I    between atoms: C5'_740  and  C4'_741 
REMARK       I    between atoms: C1'_743  and  N9_744 
REMARK       I    between atoms: C2_747  and  N2_748 
REMARK       I    between atoms: C2'_758  and  O2'_759 
REMARK       I    between atoms: C3'_761  and  O3'_762 
REMARK       I    between atoms: O3'_762  and  P_763 
REMARK       I    between atoms: P_763  and  O5'_766 
REMARK       I    between atoms: O5'_766  and  C5'_767 
REMARK       I    between atoms: C5'_767  and  C4'_768 
REMARK       I    between atoms: C1'_770  and  N9_771 
REMARK       I    between atoms: C2_774  and  N2_775 
REMARK       I    between atoms: C2'_785  and  O2'_786 
REMARK       I    between atoms: C3'_788  and  O3'_789 
REMARK       I    between atoms: O3'_789  and  P_790 
REMARK       I    between atoms: P_790  and  O5'_793 
REMARK       I    between atoms: O5'_793  and  C5'_794 
REMARK       I    between atoms: C5'_794  and  C4'_795 
REMARK       I    between atoms: C1'_797  and  N1_798 
REMARK       I    between atoms: C2'_807  and  O2'_808 
REMARK       I    between atoms: C3'_810  and  O3'_811 
REMARK       I    between atoms: O3'_811  and  P_812 
REMARK       I    between atoms: P_812  and  O5'_815 
REMARK       I    between atoms: O5'_815  and  C5'_816 
REMARK       I    between atoms: C5'_816  and  C4'_817 
REMARK       I    between atoms: C1'_819  and  N1_820 
REMARK   63  A    between atoms: C2'_829  and  O2'_830 
REMARK   64  A    between atoms: C3'_832  and  O3'_833 
REMARK   65  A    between atoms: O3'_833  and  P_834 
REMARK   66  A    between atoms: P_834  and  O5'_837 
REMARK   67  A    between atoms: O5'_837  and  C5'_838 
REMARK   68  A    between atoms: C5'_838  and  C4'_839 
REMARK       I    between atoms: C1'_841  and  N1_842 
REMARK       I    between atoms: C4_847  and  N4_848 
REMARK       I    between atoms: C2'_852  and  O2'_853 
REMARK       I    between atoms: C3'_855  and  O3'_856 
REMARK       I    between atoms: O3'_856  and  P_857 
REMARK       I    between atoms: P_857  and  O5'_860 
REMARK       I    between atoms: O5'_860  and  C5'_861 
REMARK       I    between atoms: C5'_861  and  C4'_862 
REMARK       I    between atoms: C1'_864  and  N9_865 
REMARK       I    between atoms: C6_870  and  N6_871 
REMARK       I    between atoms: C2'_877  and  O2'_878 
REMARK       I    between atoms: C3'_880  and  O3'_881 
REMARK       I    between atoms: O3'_881  and  P_882 
REMARK       I    between atoms: P_882  and  O5'_885 
REMARK   69  A    between atoms: O5'_885  and  C5'_886 
REMARK   70  A    between atoms: C5'_886  and  C4'_887 
REMARK   71  A    between atoms: C1'_889  and  N9_890 
REMARK       I    between atoms: C6_895  and  N6_896 
REMARK   72  A    between atoms: C2'_902  and  O2'_903 
REMARK   73  A    between atoms: C3'_905  and  O3'_906 
REMARK   74  A    between atoms: O3'_906  and  P_907 
REMARK   75  A    between atoms: P_907  and  O5'_910 
REMARK   76  A    between atoms: O5'_910  and  C5'_911 
REMARK   77  A    between atoms: C5'_911  and  C4'_912 
REMARK   78  A    between atoms: C1'_914  and  N9_915 
REMARK       I    between atoms: C6_920  and  N6_921 
REMARK       I    between atoms: C2'_927  and  O2'_928 
REMARK   79  A    between atoms: C3'_930  and  O3'_931 
REMARK       I    between atoms: O3'_931  and  P_932 
REMARK       I    between atoms: P_932  and  O5'_935 
REMARK       I    between atoms: O5'_935  and  C5'_936 
REMARK       I    between atoms: C5'_936  and  C4'_937 
REMARK       I    between atoms: C1'_939  and  N1_940 
REMARK       I    between atoms: C2'_949  and  O2'_950 
REMARK       I    between atoms: C3'_952  and  O3'_953 
REMARK       I    between atoms: O3'_953  and  P_954 
REMARK       I    between atoms: P_954  and  O5'_957 
REMARK       I    between atoms: O5'_957  and  C5'_958 
REMARK       I    between atoms: C5'_958  and  C4'_959 
REMARK       I    between atoms: C1'_961  and  N1_962 
REMARK       I    between atoms: C4_967  and  N4_968 
REMARK       I    between atoms: C2'_972  and  O2'_973 
REMARK       I    between atoms: C3'_975  and  O3'_976 
REMARK       I    between atoms: O3'_976  and  P_977 
REMARK       I    between atoms: P_977  and  O5'_980 
REMARK       I    between atoms: O5'_980  and  C5'_981 
REMARK       I    between atoms: C5'_981  and  C4'_982 
REMARK       I    between atoms: C1'_984  and  N1_985 
REMARK       I    between atoms: C4_990  and  N4_991 
REMARK       I    between atoms: C2'_995  and  O2'_996 
REMARK       I    between atoms: C3'_998  and  O3'_999 
REMARK       I    between atoms: O3'_999  and  P_1000 
REMARK       I    between atoms: P_1000  and  O5'_1003 
REMARK       I    between atoms: O5'_1003  and  C5'_1004 
REMARK       I    between atoms: C5'_1004  and  C4'_1005 
REMARK   80  A    between atoms: C1'_1007  and  N1_1008 
REMARK       I    between atoms: C4_1013  and  N4_1014 
REMARK   81  A    between atoms: C2'_1018  and  O2'_1019 
REMARK   82  A    between atoms: C3'_1021  and  O3'_1022 
REMARK   83  A    between atoms: O3'_1022  and  P_1023 
REMARK   84  A    between atoms: P_1023  and  O5'_1026 
REMARK   85  A    between atoms: O5'_1026  and  C5'_1027 
REMARK   86  A    between atoms: C5'_1027  and  C4'_1028 
REMARK   87  A    between atoms: C1'_1030  and  N9_1031 
REMARK       I    between atoms: C2_1034  and  N2_1035 
REMARK       I    between atoms: C2'_1045  and  O2'_1046 
REMARK       I    between atoms: C3'_1048  and  O3'_1049 
REMARK       I    between atoms: O3'_1049  and  P_1050 
REMARK       I    between atoms: P_1050  and  O5'_1053 
REMARK       I    between atoms: O5'_1053  and  C5'_1054 
REMARK       I    between atoms: C5'_1054  and  C4'_1055 
REMARK       I    between atoms: C1'_1057  and  N9_1058 
REMARK       I    between atoms: C2_1061  and  N2_1062 
REMARK   88  A    between atoms: C2'_1072  and  O2'_1073 
REMARK   89  A    between atoms: C3'_1075  and  O3'_1076 
REMARK   90  A    between atoms: O3'_1076  and  P_1077 
REMARK       I    between atoms: P_1077  and  O5'_1080 
REMARK       I    between atoms: O5'_1080  and  C5'_1081 
REMARK       I    between atoms: C5'_1081  and  C4'_1082 
REMARK       I    between atoms: C1'_1084  and  N9_1085 
REMARK       I    between atoms: C6_1090  and  N6_1091 
REMARK       I    between atoms: C2'_1097  and  O2'_1098 
REMARK       I    between atoms: C3'_1100  and  O3'_1101 
REMARK   91  A    between atoms: O3'_1101  and  P_1102 
REMARK   92  A    between atoms: P_1102  and  O5'_1105 
REMARK   93  A    between atoms: O5'_1105  and  C5'_1106 
REMARK   94  A    between atoms: C5'_1106  and  C4'_1107 
REMARK   95  A    between atoms: C1'_1109  and  N1_1110 
REMARK       I    between atoms: C4_1115  and  N4_1116 
REMARK   96  A    between atoms: C2'_1120  and  O2'_1121 
REMARK   97  A    between atoms: C3'_1123  and  O3'_1124 
REMARK   98  A    between atoms: O3'_1124  and  P_1125 
REMARK   99  A    between atoms: P_1125  and  O5'_1128 
REMARK  100  A    between atoms: O5'_1128  and  C5'_1129 
REMARK  101  A    between atoms: C5'_1129  and  C4'_1130 
REMARK       I    between atoms: C1'_1132  and  N9_1133 
REMARK       I    between atoms: C2_1136  and  N2_1137 
REMARK       I    between atoms: C2'_1147  and  O2'_1148 
REMARK       I    between atoms: C3'_1150  and  O3'_1151 
REMARK       I    between atoms: O3'_1151  and  P_1152 
REMARK       I    between atoms: P_1152  and  O5'_1155 
REMARK       I    between atoms: O5'_1155  and  C5'_1156 
REMARK       I    between atoms: C5'_1156  and  C4'_1157 
REMARK       I    between atoms: C1'_1159  and  N9_1160 
REMARK       I    between atoms: C6_1165  and  N6_1166 
REMARK       I    between atoms: C2'_1172  and  O2'_1173 
REMARK       I    between atoms: C3'_1175  and  O3'_1176 
REMARK       I    between atoms: O3'_1176  and  P_1177 
REMARK       I    between atoms: P_1177  and  O5'_1180 
REMARK       I    between atoms: O5'_1180  and  C5'_1181 
REMARK       I    between atoms: C5'_1181  and  C4'_1182 
REMARK       I    between atoms: C1'_1184  and  N9_1185 
REMARK       I    between atoms: C2_1188  and  N2_1189 
REMARK       I    between atoms: C2'_1199  and  O2'_1200 
REMARK       I    between atoms: C3'_1202  and  O3'_1203 
REMARK       I    between atoms: O3'_1203  and  P_1204 
REMARK       I    between atoms: P_1204  and  O5'_1207 
REMARK       I    between atoms: O5'_1207  and  C5'_1208 
REMARK       I    between atoms: C5'_1208  and  C4'_1209 
REMARK       I    between atoms: C1'_1211  and  N1_1212 
REMARK       I    between atoms: C4_1217  and  N4_1218 
REMARK       I    between atoms: C2'_1222  and  O2'_1223 
REMARK       I    between atoms: C3'_1225  and  O3'_1226 
REMARK       I    between atoms: O3'_1226  and  P_1227 
REMARK       I    between atoms: P_1227  and  O5'_1230 
REMARK       I    between atoms: O5'_1230  and  C5'_1231 
REMARK       I    between atoms: C5'_1231  and  C4'_1232 
REMARK       I    between atoms: C1'_1234  and  N1_1235 
REMARK       I    between atoms: C4_1240  and  N4_1241 
REMARK       I    between atoms: C2'_1245  and  O2'_1246 
REMARK       I    between atoms: C3'_1248  and  O3'_1249 
REMARK       I    between atoms: O3'_1249  and  P_1250 
REMARK       I    between atoms: P_1250  and  O5'_1253 
REMARK       I    between atoms: O5'_1253  and  C5'_1254 
REMARK       I    between atoms: C5'_1254  and  C4'_1255 
REMARK       I    between atoms: C1'_1257  and  N1_1258 
REMARK       I    between atoms: C4_1263  and  N4_1264 
REMARK       I    between atoms: C2'_1268  and  O2'_1269 
REMARK       I    between atoms: C3'_1271  and  O3'_1272 
ROOT
ATOM      1 'HO5   G A   1     -41.951   3.166  51.404  1.00  0.00     0.209 HD
ATOM      2  O5'   G A   1     -42.762   3.015  51.896  1.00  0.00    -0.398 OA
ATOM      3  C5'   G A   1     -43.504   4.238  51.873  1.00  0.00     0.198 C 
ATOM      4  C4'   G A   1     -42.922   5.200  50.864  1.00  0.00     0.180 C 
ATOM      5  O4'   G A   1     -41.607   5.621  51.324  1.00  0.00    -0.353 OA
ATOM      6  C1'   G A   1     -40.693   5.607  50.244  1.00  0.00     0.262 C 
ATOM      7  N9    G A   1     -39.738   4.524  50.463  1.00  0.00    -0.293 N 
ATOM      8  C4    G A   1     -38.725   4.144  49.615  1.00  0.00     0.187 A 
ATOM      9  N3    G A   1     -38.431   4.711  48.427  1.00  0.00    -0.044 NA
ATOM     10  C2    G A   1     -37.404   4.123  47.841  1.00  0.00     0.703 A 
ATOM     11  N2    G A   1     -36.979   4.559  46.653  1.00  0.00    -0.233 N 
ATOM     12  H21   G A   1     -37.449   5.336  46.214  1.00  0.00     0.174 HD
ATOM     13  H22   G A   1     -36.194   4.114  46.198  1.00  0.00     0.174 HD
ATOM     14  N1    G A   1     -36.719   3.064  48.375  1.00  0.00    -0.153 N 
ATOM     15  H1    G A   1     -35.949   2.690  47.843  1.00  0.00     0.187 HD
ATOM     16  C6    G A   1     -37.000   2.463  49.597  1.00  0.00     0.292 A 
ATOM     17  O6    G A   1     -36.314   1.510  49.986  1.00  0.00    -0.265 OA
ATOM     18  C5    G A   1     -38.104   3.083  50.240  1.00  0.00     0.173 A 
ATOM     19  N7    G A   1     -38.710   2.803  51.458  1.00  0.00    -0.234 NA
ATOM     20  C8    G A   1     -39.671   3.682  51.546  1.00  0.00     0.214 A 
ATOM     21  C2'   G A   1     -41.514   5.452  48.966  1.00  0.00     0.199 C 
ATOM     22  C3'   G A   1     -42.687   4.623  49.474  1.00  0.00     0.198 C 
ENDROOT
BRANCH  22  23
ATOM     23  O3'   G A   1     -43.844   4.752  48.652  1.00  0.00    -0.279 OA
BRANCH  23  24
ATOM     24  P     G A   2     -44.912   5.918  48.948  1.00  0.00     0.408 P 
ATOM     25  OP2   G A   2     -46.210   5.289  49.301  1.00  0.00    -0.624 OA
ATOM     26  OP1   G A   2     -44.273   6.866  49.896  1.00  0.00    -0.624 OA
BRANCH  24  27
ATOM     27  O5'   G A   2     -45.078   6.654  47.545  1.00  0.00    -0.287 OA
ATOM     28  C5'   G A   2     -46.366   7.033  47.064  1.00  0.00     0.216 C 
ATOM     29  C4'   G A   2     -46.251   7.635  45.683  1.00  0.00     0.180 C 
ATOM     30  C3'   G A   2     -45.429   6.838  44.681  1.00  0.00     0.198 C 
ATOM     31  O4'   G A   2     -45.556   8.908  45.773  1.00  0.00    -0.353 OA
ATOM     32  C2'   G A   2     -45.010   7.911  43.683  1.00  0.00     0.199 C 
ATOM     33  O3'   G A   2     -46.195   5.799  44.077  1.00  0.00    -0.279 OA
ATOM     34  O2'   G A   2     -46.071   8.233  42.803  1.00  0.00    -0.388 OA
ATOM     35  C1'   G A   2     -44.765   9.099  44.612  1.00  0.00     0.262 C 
ATOM     36 'HO2   G A   2     -46.661   7.479  42.796  1.00  0.00     0.210 HD
ATOM     37  N9    G A   2     -43.371   9.241  45.022  1.00  0.00    -0.293 N 
ATOM     38  C8    G A   2     -42.841   9.004  46.267  1.00  0.00     0.214 A 
ATOM     39  C4    G A   2     -42.324   9.644  44.227  1.00  0.00     0.187 A 
ATOM     40  N7    G A   2     -41.557   9.223  46.331  1.00  0.00    -0.234 NA
ATOM     41  C5    G A   2     -41.215   9.629  45.047  1.00  0.00     0.173 A 
ATOM     42  C6    G A   2     -39.959  10.004  44.503  1.00  0.00     0.292 A 
ATOM     43  O6    G A   2     -38.859  10.058  45.064  1.00  0.00    -0.265 OA
ATOM     44  N1    G A   2     -40.066  10.340  43.158  1.00  0.00    -0.153 N 
ATOM     45  H1    G A   2     -39.223  10.619  42.682  1.00  0.00     0.187 HD
ATOM     46  C2    G A   2     -41.227  10.321  42.431  1.00  0.00     0.703 A 
ATOM     47  N2    G A   2     -41.124  10.677  41.148  1.00  0.00    -0.233 N 
ATOM     48  N3    G A   2     -42.402   9.975  42.923  1.00  0.00    -0.044 NA
ATOM     49  H22   G A   2     -40.228  10.943  40.762  1.00  0.00     0.174 HD
ATOM     50  H21   G A   2     -41.949  10.680  40.567  1.00  0.00     0.174 HD
ATOM     51  P     C A   3     -45.457   4.481  43.521  1.00  0.00     0.408 P 
ATOM     52  OP2   C A   3     -44.570   3.952  44.587  1.00  0.00    -0.624 OA
ATOM     53  O5'   C A   3     -44.541   5.024  42.335  1.00  0.00    -0.287 OA
ATOM     54  OP1   C A   3     -46.502   3.605  42.934  1.00  0.00    -0.624 OA
ATOM     55  C5'   C A   3     -45.119   5.633  41.183  1.00  0.00     0.216 C 
ATOM     56  C4'   C A   3     -44.045   5.967  40.173  1.00  0.00     0.180 C 
ATOM     57  C3'   C A   3     -42.970   4.910  39.972  1.00  0.00     0.198 C 
ATOM     58  O4'   C A   3     -43.299   7.128  40.630  1.00  0.00    -0.353 OA
ATOM     59  O3'   C A   3     -43.392   3.872  39.092  1.00  0.00    -0.279 OA
ATOM     60  C2'   C A   3     -41.824   5.733  39.397  1.00  0.00     0.199 C 
ATOM     61  P     T A   4     -42.676   2.434  39.156  1.00  0.00     0.408 P 
ATOM     62  O5'   T A   4     -41.195   2.717  38.640  1.00  0.00    -0.287 OA
ATOM     63  OP1   T A   4     -43.354   1.558  38.166  1.00  0.00    -0.624 OA
ATOM     64  OP2   T A   4     -42.598   2.010  40.578  1.00  0.00    -0.624 OA
ATOM     65  C5'   T A   4     -40.933   2.946  37.256  1.00  0.00     0.216 C 
ATOM     66  C4'   T A   4     -39.541   3.508  37.069  1.00  0.00     0.180 C 
ATOM     67  C3'   T A   4     -38.396   2.529  37.271  1.00  0.00     0.198 C 
ATOM     68  O4'   T A   4     -39.277   4.525  38.069  1.00  0.00    -0.353 OA
ATOM     69  C2'   T A   4     -37.217   3.467  37.511  1.00  0.00     0.199 C 
ATOM     70  O2'   T A   4     -36.739   4.010  36.295  1.00  0.00    -0.388 OA
ATOM     71  C1'   T A   4     -37.882   4.588  38.316  1.00  0.00     0.264 C 
ATOM     72 'HO2   T A   4     -36.704   3.292  35.664  1.00  0.00     0.210 HD
ATOM     73  N1    T A   4     -37.654   4.478  39.765  1.00  0.00    -0.280 N 
ATOM     74  C2    T A   4     -36.398   4.806  40.243  1.00  0.00     0.331 A 
ATOM     75  C6    T A   4     -38.651   4.061  40.619  1.00  0.00     0.104 A 
ATOM     76  O2    T A   4     -35.491   5.181  39.522  1.00  0.00    -0.246 OA
ATOM     77  N3    T A   4     -36.241   4.680  41.598  1.00  0.00    -0.275 N 
ATOM     78  H3    T A   4     -35.331   4.913  41.966  1.00  0.00     0.173 HD
ATOM     79  C4    T A   4     -37.190   4.271  42.508  1.00  0.00     0.250 A 
ATOM     80  C5    T A   4     -38.462   3.953  41.938  1.00  0.00     0.092 A 
ATOM     81  O4    T A   4     -36.893   4.206  43.701  1.00  0.00    -0.268 OA
ATOM     82  C1'   C A   3     -41.944   7.012  40.226  1.00  0.00     0.264 C 
ATOM     83  O2'   C A   3     -42.050   6.051  38.037  1.00  0.00    -0.388 OA
ATOM     84  N1    C A   3     -41.093   7.009  41.427  1.00  0.00    -0.278 N 
ATOM     85  C2    C A   3     -39.753   7.376  41.300  1.00  0.00     0.352 A 
ATOM     86  C6    C A   3     -41.598   6.651  42.647  1.00  0.00     0.102 A 
ATOM     87  N3    C A   3     -38.958   7.372  42.392  1.00  0.00    -0.177 NA
ATOM     88  O2    C A   3     -39.322   7.698  40.185  1.00  0.00    -0.244 OA
ATOM     89  C4    C A   3     -39.458   7.022  43.578  1.00  0.00     0.128 A 
ATOM     90  N4    C A   3     -38.635   7.034  44.625  1.00  0.00    -0.384 N 
ATOM     91  C5    C A   3     -40.822   6.644  43.740  1.00  0.00     0.067 A 
ATOM     92  H41   C A   3     -38.971   6.776  45.542  1.00  0.00     0.157 HD
ATOM     93  H42   C A   3     -37.669   7.305  44.497  1.00  0.00     0.157 HD
ATOM     94 'HO2   C A   3     -42.439   5.276  37.632  1.00  0.00     0.210 HD
BRANCH  67  95
ATOM     95  O3'   T A   4     -38.207   1.690  36.135  1.00  0.00    -0.279 OA
BRANCH  95  96
ATOM     96  P     C A   5     -38.041   0.102  36.332  1.00  0.00     0.408 P 
ATOM     97  OP1   C A   5     -37.644  -0.469  35.020  1.00  0.00    -0.624 OA
ATOM     98  OP2   C A   5     -39.251  -0.415  37.021  1.00  0.00    -0.624 OA
BRANCH  96  99
ATOM     99  O5'   C A   5     -36.806  -0.037  37.330  1.00  0.00    -0.287 OA
BRANCH  99 100
ATOM    100  C5'   C A   5     -35.475   0.224  36.891  1.00  0.00     0.216 C 
BRANCH 100 101
ATOM    101  C4'   C A   5     -34.600   0.600  38.064  1.00  0.00     0.180 C 
ATOM    102  C3'   C A   5     -34.132  -0.553  38.938  1.00  0.00     0.198 C 
ATOM    103  C2'   C A   5     -33.783   0.151  40.247  1.00  0.00     0.199 C 
ATOM    104  C1'   C A   5     -34.847   1.252  40.297  1.00  0.00     0.264 C 
ATOM    105  O4'   C A   5     -35.353   1.429  38.985  1.00  0.00    -0.353 OA
BRANCH 102 106
ATOM    106  O3'   C A   5     -33.015  -1.230  38.370  1.00  0.00    -0.279 OA
BRANCH 106 107
ATOM    107  P     G A   6     -32.531  -2.634  38.990  1.00  0.00     0.408 P 
ATOM    108  OP1   G A   6     -33.746  -3.462  39.203  1.00  0.00    -0.624 OA
ATOM    109  OP2   G A   6     -31.622  -2.357  40.131  1.00  0.00    -0.624 OA
BRANCH 107 110
ATOM    110  O5'   G A   6     -31.674  -3.299  37.822  1.00  0.00    -0.287 OA
BRANCH 110 111
ATOM    111  C5'   G A   6     -32.088  -3.204  36.461  1.00  0.00     0.216 C 
BRANCH 111 112
ATOM    112  C4'   G A   6     -30.922  -2.810  35.582  1.00  0.00     0.180 C 
ATOM    113  C3'   G A   6     -30.437  -3.876  34.610  1.00  0.00     0.198 C 
ATOM    114  C2'   G A   6     -29.002  -3.438  34.347  1.00  0.00     0.199 C 
ATOM    115  C1'   G A   6     -28.585  -2.943  35.732  1.00  0.00     0.262 C 
ATOM    116  O4'   G A   6     -29.761  -2.542  36.414  1.00  0.00    -0.353 OA
BRANCH 113 117
ATOM    117  O3'   G A   6     -31.227  -3.906  33.425  1.00  0.00    -0.279 OA
ATOM    118  P     T A   7     -30.995  -2.799  32.280  1.00  0.00     0.408 P 
ATOM    119  OP1   T A   7     -31.879  -3.148  31.139  1.00  0.00    -0.624 OA
ATOM    120  OP2   T A   7     -29.535  -2.647  32.056  1.00  0.00    -0.624 OA
ATOM    121  O5'   T A   7     -31.537  -1.449  32.931  1.00  0.00    -0.287 OA
ATOM    122  C5'   T A   7     -32.925  -1.278  33.220  1.00  0.00     0.216 C 
ATOM    123  C4'   T A   7     -33.131  -0.058  34.087  1.00  0.00     0.180 C 
ATOM    124  C3'   T A   7     -32.721   1.267  33.462  1.00  0.00     0.198 C 
ATOM    125  O4'   T A   7     -32.294  -0.164  35.265  1.00  0.00    -0.353 OA
ATOM    126  O3'   T A   7     -33.757   1.791  32.633  1.00  0.00    -0.279 OA
ATOM    127  C2'   T A   7     -32.450   2.145  34.680  1.00  0.00     0.199 C 
ATOM    128  P     T A   8     -33.416   2.933  31.552  1.00  0.00     0.408 P 
ATOM    129  OP2   T A   8     -31.959   2.893  31.270  1.00  0.00    -0.624 OA
ATOM    130  OP1   T A   8     -34.384   2.787  30.436  1.00  0.00    -0.624 OA
ATOM    131  O5'   T A   8     -33.737   4.294  32.316  1.00  0.00    -0.287 OA
ATOM    132  C5'   T A   8     -35.078   4.671  32.625  1.00  0.00     0.216 C 
ATOM    133  C4'   T A   8     -35.111   6.089  33.149  1.00  0.00     0.180 C 
ATOM    134  C3'   T A   8     -34.373   7.112  32.292  1.00  0.00     0.198 C 
ATOM    135  O4'   T A   8     -34.441   6.123  34.440  1.00  0.00    -0.353 OA
ATOM    136  C2'   T A   8     -33.916   8.141  33.318  1.00  0.00     0.199 C 
ATOM    137  O3'   T A   8     -35.225   7.680  31.301  1.00  0.00    -0.279 OA
ATOM    138  O2'   T A   8     -34.979   9.002  33.685  1.00  0.00    -0.388 OA
ATOM    139  C1'   T A   8     -33.577   7.242  34.505  1.00  0.00     0.264 C 
ATOM    140 'HO2   T A   8     -35.650   8.909  33.009  1.00  0.00     0.210 HD
ATOM    141  N1    T A   8     -32.188   6.759  34.502  1.00  0.00    -0.280 N 
ATOM    142  C2    T A   8     -31.240   7.513  35.169  1.00  0.00     0.331 A 
ATOM    143  C6    T A   8     -31.841   5.596  33.855  1.00  0.00     0.104 A 
ATOM    144  O2    T A   8     -31.506   8.546  35.756  1.00  0.00    -0.246 OA
ATOM    145  N3    T A   8     -29.965   7.011  35.125  1.00  0.00    -0.275 N 
ATOM    146  H3    T A   8     -29.256   7.546  35.601  1.00  0.00     0.173 HD
ATOM    147  C4    T A   8     -29.550   5.858  34.496  1.00  0.00     0.250 A 
ATOM    148  C5    T A   8     -30.588   5.138  33.833  1.00  0.00     0.092 A 
ATOM    149  O4    T A   8     -28.364   5.533  34.550  1.00  0.00    -0.268 OA
ATOM    150  O2'   T A   7     -33.651   2.681  35.201  1.00  0.00    -0.388 OA
ATOM    151  C1'   T A   7     -31.895   1.130  35.681  1.00  0.00     0.264 C 
ATOM    152 'HO2   T A   7     -34.282   2.715  34.480  1.00  0.00     0.210 HD
ATOM    153  N1    T A   7     -30.430   1.151  35.791  1.00  0.00    -0.280 N 
ATOM    154  C6    T A   7     -29.651   0.177  35.206  1.00  0.00     0.104 A 
ATOM    155  C2    T A   7     -29.855   2.185  36.506  1.00  0.00     0.331 A 
ATOM    156  C5    T A   7     -28.319   0.173  35.301  1.00  0.00     0.092 A 
ATOM    157  C4    T A   7     -27.651   1.208  36.027  1.00  0.00     0.250 A 
ATOM    158  N3    T A   7     -28.487   2.149  36.581  1.00  0.00    -0.275 N 
ATOM    159  O4    T A   7     -26.436   1.311  36.186  1.00  0.00    -0.268 OA
ATOM    160  H3    T A   7     -28.052   2.899  37.095  1.00  0.00     0.173 HD
ATOM    161  O2    T A   7     -30.506   3.067  37.035  1.00  0.00    -0.246 OA
BRANCH 137 162
ATOM    162  P     G A   9     -34.622   8.074  29.862  1.00  0.00     0.408 P 
ATOM    163  OP2   G A   9     -34.955   6.987  28.907  1.00  0.00    -0.624 OA
ATOM    164  OP1   G A   9     -35.054   9.465  29.569  1.00  0.00    -0.624 OA
BRANCH 162 165
ATOM    165  O5'   G A   9     -33.045   8.078  30.087  1.00  0.00    -0.287 OA
BRANCH 165 166
ATOM    166  C5'   G A   9     -32.353   9.276  30.437  1.00  0.00     0.216 C 
ATOM    167  C4'   G A   9     -30.949   9.253  29.877  1.00  0.00     0.180 C 
ATOM    168  C3'   G A   9     -30.845   9.201  28.359  1.00  0.00     0.198 C 
ATOM    169  O4'   G A   9     -30.281   8.043  30.330  1.00  0.00    -0.353 OA
ATOM    170  O3'   G A   9     -30.908  10.503  27.782  1.00  0.00    -0.279 OA
ATOM    171  C2'   G A   9     -29.489   8.538  28.143  1.00  0.00     0.199 C 
ATOM    172  P     G A  10     -31.420  10.683  26.267  1.00  0.00     0.408 P 
ATOM    173  OP1   G A  10     -31.444  12.141  25.983  1.00  0.00    -0.624 OA
ATOM    174  OP2   G A  10     -32.659   9.883  26.088  1.00  0.00    -0.624 OA
ATOM    175  O5'   G A  10     -30.268  10.028  25.383  1.00  0.00    -0.287 OA
ATOM    176  C5'   G A  10     -28.927  10.518  25.437  1.00  0.00     0.216 C 
ATOM    177  C4'   G A  10     -28.018   9.643  24.605  1.00  0.00     0.180 C 
ATOM    178  O4'   G A  10     -28.288   8.248  24.930  1.00  0.00    -0.353 OA
ATOM    179  C3'   G A  10     -28.205   9.764  23.093  1.00  0.00     0.198 C 
ATOM    180  C1'   G A  10     -28.574   7.537  23.746  1.00  0.00     0.262 C 
ATOM    181  C2'   G A  10     -29.096   8.573  22.757  1.00  0.00     0.199 C 
ATOM    182  N9    G A  10     -29.518   6.469  24.057  1.00  0.00    -0.293 N 
ATOM    183  C8    G A  10     -30.534   6.498  24.980  1.00  0.00     0.214 A 
ATOM    184  C4    G A  10     -29.564   5.228  23.469  1.00  0.00     0.187 A 
ATOM    185  N7    G A  10     -31.221   5.387  25.026  1.00  0.00    -0.234 NA
ATOM    186  C5    G A  10     -30.618   4.575  24.074  1.00  0.00     0.173 A 
ATOM    187  C6    G A  10     -30.923   3.248  23.668  1.00  0.00     0.292 A 
ATOM    188  O6    G A  10     -31.816   2.498  24.081  1.00  0.00    -0.265 OA
ATOM    189  N1    G A  10     -30.060   2.809  22.672  1.00  0.00    -0.153 N 
ATOM    190  H1    G A  10     -30.200   1.876  22.315  1.00  0.00     0.187 HD
ATOM    191  C2    G A  10     -29.033   3.544  22.138  1.00  0.00     0.703 A 
ATOM    192  N3    G A  10     -28.737   4.777  22.505  1.00  0.00    -0.044 NA
ATOM    193  N2    G A  10     -28.307   2.944  21.191  1.00  0.00    -0.233 N 
ATOM    194  H22   G A  10     -28.530   2.002  20.900  1.00  0.00     0.174 HD
ATOM    195  H21   G A  10     -27.538   3.438  20.765  1.00  0.00     0.174 HD
ATOM    196  O2'   G A   9     -28.432   9.461  28.331  1.00  0.00    -0.388 OA
ATOM    197  C1'   G A   9     -29.466   7.529  29.292  1.00  0.00     0.262 C 
ATOM    198 'HO2   G A   9     -28.825  10.334  28.316  1.00  0.00     0.210 HD
BRANCH 181 199
ATOM    199  O2'   G A  10     -28.859   8.110  21.440  1.00  0.00    -0.388 OA
ATOM    200 'HO2   G A  10     -29.499   7.418  21.270  1.00  0.00     0.210 HD
ENDBRANCH 181 199
BRANCH 179 201
ATOM    201  O3'   G A  10     -26.955   9.705  22.410  1.00  0.00    -0.279 OA
BRANCH 201 202
ATOM    202  P     T A  11     -25.652  10.378  23.069  1.00  0.00     0.408 P 
ATOM    203  OP2   T A  11     -26.087  11.542  23.883  1.00  0.00    -0.624 OA
ATOM    204  OP1   T A  11     -24.860   9.296  23.706  1.00  0.00    -0.624 OA
BRANCH 202 205
ATOM    205  O5'   T A  11     -24.831  10.931  21.821  1.00  0.00    -0.287 OA
BRANCH 205 206
ATOM    206  C5'   T A  11     -24.704  12.332  21.578  1.00  0.00     0.216 C 
BRANCH 206 207
ATOM    207  C4'   T A  11     -23.564  12.593  20.619  1.00  0.00     0.180 C 
ATOM    208  O4'   T A  11     -23.659  13.966  20.136  1.00  0.00    -0.353 OA
ATOM    209  C1'   T A  11     -22.383  14.580  20.189  1.00  0.00     0.264 C 
ATOM    210  C2'   T A  11     -21.367  13.454  20.362  1.00  0.00     0.199 C 
ATOM    211  N1    T A  11     -22.379  15.556  21.289  1.00  0.00    -0.280 N 
ATOM    212  O2'   T A  11     -21.080  12.895  19.094  1.00  0.00    -0.388 OA
ATOM    213  C3'   T A  11     -22.167  12.486  21.222  1.00  0.00     0.198 C 
ATOM    214 'HO2   T A  11     -20.977  11.953  19.225  1.00  0.00     0.210 HD
ATOM    215  O3'   T A  11     -21.666  11.154  21.157  1.00  0.00    -0.279 OA
ATOM    216  P     C A  12     -20.784  10.571  22.370  1.00  0.00     0.408 P 
ATOM    217  O5'   C A  12     -19.389  11.328  22.230  1.00  0.00    -0.287 OA
ATOM    218  OP2   C A  12     -21.409  10.990  23.651  1.00  0.00    -0.624 OA
ATOM    219  OP1   C A  12     -20.559   9.128  22.102  1.00  0.00    -0.624 OA
ATOM    220  C5'   C A  12     -18.481  11.008  21.177  1.00  0.00     0.216 C 
ATOM    221  C4'   C A  12     -17.317  11.972  21.178  1.00  0.00     0.180 C 
ATOM    222  O4'   C A  12     -17.827  13.331  21.076  1.00  0.00    -0.353 OA
ATOM    223  C3'   C A  12     -16.474  11.982  22.445  1.00  0.00     0.198 C 
ATOM    224  C1'   C A  12     -17.046  14.196  21.882  1.00  0.00     0.264 C 
ATOM    225  C2'   C A  12     -15.872  13.381  22.423  1.00  0.00     0.199 C 
ATOM    226  N1    C A  12     -17.907  14.758  22.936  1.00  0.00    -0.278 N 
ATOM    227  C6    C A  12     -19.146  14.235  23.182  1.00  0.00     0.102 A 
ATOM    228  C2    C A  12     -17.437  15.841  23.686  1.00  0.00     0.352 A 
ATOM    229  C5    C A  12     -19.934  14.745  24.136  1.00  0.00     0.067 A 
ATOM    230  C4    C A  12     -19.430  15.850  24.883  1.00  0.00     0.128 A 
ATOM    231  N3    C A  12     -18.222  16.366  24.653  1.00  0.00    -0.177 NA
ATOM    232  N4    C A  12     -20.169  16.401  25.844  1.00  0.00    -0.384 N 
ATOM    233  H42   C A  12     -19.806  17.185  26.368  1.00  0.00     0.157 HD
ATOM    234  H41   C A  12     -21.090  16.041  26.049  1.00  0.00     0.157 HD
ATOM    235  O2    C A  12     -16.308  16.295  23.447  1.00  0.00    -0.244 OA
ATOM    236  C6    T A  11     -23.466  15.696  22.124  1.00  0.00     0.104 A 
ATOM    237  C2    T A  11     -21.245  16.328  21.462  1.00  0.00     0.331 A 
ATOM    238  C5    T A  11     -23.478  16.562  23.142  1.00  0.00     0.092 A 
ATOM    239  C4    T A  11     -22.340  17.386  23.393  1.00  0.00     0.250 A 
ATOM    240  N3    T A  11     -21.296  17.203  22.515  1.00  0.00    -0.275 N 
ATOM    241  O4    T A  11     -22.219  18.191  24.315  1.00  0.00    -0.268 OA
ATOM    242  H3    T A  11     -20.478  17.777  22.664  1.00  0.00     0.173 HD
ATOM    243  O2    T A  11     -20.270  16.244  20.741  1.00  0.00    -0.246 OA
BRANCH 225 244
ATOM    244  O2'   C A  12     -14.799  13.465  21.504  1.00  0.00    -0.388 OA
ATOM    245 'HO2   C A  12     -13.991  13.476  22.018  1.00  0.00     0.210 HD
ENDBRANCH 225 244
BRANCH 223 246
ATOM    246  O3'   C A  12     -15.478  10.962  22.428  1.00  0.00    -0.279 OA
BRANCH 246 247
ATOM    247  P     T A  13     -15.427   9.873  23.611  1.00  0.00     0.408 P 
ATOM    248  OP2   T A  13     -14.311   8.933  23.340  1.00  0.00    -0.624 OA
ATOM    249  OP1   T A  13     -15.465  10.615  24.897  1.00  0.00    -0.624 OA
BRANCH 247 250
ATOM    250  O5'   T A  13     -16.795   9.071  23.458  1.00  0.00    -0.287 OA
BRANCH 250 251
ATOM    251  C5'   T A  13     -17.813   9.156  24.454  1.00  0.00     0.216 C 
BRANCH 251 252
ATOM    252  C4'   T A  13     -17.356   8.489  25.731  1.00  0.00     0.180 C 
ATOM    253  O4'   T A  13     -18.001   9.136  26.863  1.00  0.00    -0.353 OA
ATOM    254  C1'   T A  13     -18.347   8.162  27.836  1.00  0.00     0.264 C 
ATOM    255  C2'   T A  13     -17.727   6.840  27.387  1.00  0.00     0.199 C 
ATOM    256  O2'   T A  13     -16.406   6.762  27.892  1.00  0.00    -0.388 OA
ATOM    257  C3'   T A  13     -17.730   7.020  25.877  1.00  0.00     0.198 C 
ATOM    258 'HO2   T A  13     -15.844   6.515  27.157  1.00  0.00     0.210 HD
ATOM    259  O3'   T A  13     -16.797   6.165  25.223  1.00  0.00    -0.279 OA
ATOM    260  P     C A  14     -17.250   4.690  24.766  1.00  0.00     0.408 P 
ATOM    261  O5'   C A  14     -17.528   3.929  26.139  1.00  0.00    -0.287 OA
ATOM    262  OP1   C A  14     -16.082   4.050  24.109  1.00  0.00    -0.624 OA
ATOM    263  OP2   C A  14     -18.535   4.802  24.030  1.00  0.00    -0.624 OA
ATOM    264  C5'   C A  14     -16.474   3.681  27.066  1.00  0.00     0.216 C 
ATOM    265  C4'   C A  14     -17.005   2.960  28.284  1.00  0.00     0.180 C 
ATOM    266  O4'   C A  14     -17.868   3.856  29.038  1.00  0.00    -0.353 OA
ATOM    267  C3'   C A  14     -17.894   1.755  28.008  1.00  0.00     0.198 C 
ATOM    268  C1'   C A  14     -18.923   3.112  29.629  1.00  0.00     0.264 C 
ATOM    269  C2'   C A  14     -18.673   1.639  29.310  1.00  0.00     0.199 C 
ATOM    270  N1    C A  14     -20.203   3.618  29.104  1.00  0.00    -0.278 N 
ATOM    271  O2'   C A  14     -17.874   1.080  30.336  1.00  0.00    -0.388 OA
ATOM    272 'HO2   C A  14     -17.166   0.603  29.902  1.00  0.00     0.210 HD
ATOM    273  C2    C A  14     -21.364   3.431  29.861  1.00  0.00     0.352 A 
ATOM    274  C6    C A  14     -20.262   4.260  27.899  1.00  0.00     0.102 A 
ATOM    275  O2    C A  14     -21.283   2.849  30.950  1.00  0.00    -0.244 OA
ATOM    276  N3    C A  14     -22.543   3.890  29.387  1.00  0.00    -0.177 NA
ATOM    277  C4    C A  14     -22.589   4.518  28.211  1.00  0.00     0.128 A 
ATOM    278  C5    C A  14     -21.423   4.725  27.419  1.00  0.00     0.067 A 
ATOM    279  N4    C A  14     -23.774   4.958  27.788  1.00  0.00    -0.384 N 
ATOM    280  H42   C A  14     -24.596   4.806  28.353  1.00  0.00     0.157 HD
ATOM    281  H41   C A  14     -23.853   5.439  26.904  1.00  0.00     0.157 HD
ATOM    282  O3'   C A  14     -17.136   0.585  27.715  1.00  0.00    -0.279 OA
ATOM    283  P     G A  15     -17.812  -0.616  26.885  1.00  0.00     0.408 P 
ATOM    284  OP1   G A  15     -16.766  -1.648  26.671  1.00  0.00    -0.624 OA
ATOM    285  OP2   G A  15     -18.524  -0.039  25.716  1.00  0.00    -0.624 OA
ATOM    286  O5'   G A  15     -18.900  -1.213  27.885  1.00  0.00    -0.287 OA
ATOM    287  C5'   G A  15     -18.513  -1.774  29.138  1.00  0.00     0.216 C 
ATOM    288  C4'   G A  15     -19.724  -2.298  29.876  1.00  0.00     0.180 C 
ATOM    289  O4'   G A  15     -20.517  -1.183  30.362  1.00  0.00    -0.353 OA
ATOM    290  C3'   G A  15     -20.718  -3.095  29.046  1.00  0.00     0.198 C 
ATOM    291  C1'   G A  15     -21.882  -1.563  30.409  1.00  0.00     0.262 C 
ATOM    292  N9    G A  15     -22.658  -0.610  29.622  1.00  0.00    -0.293 N 
ATOM    293  C2'   G A  15     -21.982  -2.999  29.891  1.00  0.00     0.199 C 
ATOM    294  C8    G A  15     -22.190   0.251  28.659  1.00  0.00     0.214 A 
ATOM    295  C4    G A  15     -24.013  -0.402  29.699  1.00  0.00     0.187 A 
ATOM    296  N7    G A  15     -23.128   0.984  28.124  1.00  0.00    -0.234 NA
ATOM    297  C5    G A  15     -24.288   0.581  28.772  1.00  0.00     0.173 A 
ATOM    298  C6    G A  15     -25.630   1.015  28.615  1.00  0.00     0.292 A 
ATOM    299  N1    G A  15     -26.490   0.340  29.474  1.00  0.00    -0.153 N 
ATOM    300  O6    G A  15     -26.078   1.872  27.846  1.00  0.00    -0.265 OA
ATOM    301  H1    G A  15     -27.467   0.585  29.435  1.00  0.00     0.187 HD
ATOM    302  C2    G A  15     -26.109  -0.629  30.367  1.00  0.00     0.703 A 
ATOM    303  N3    G A  15     -24.867  -1.045  30.523  1.00  0.00    -0.044 NA
ATOM    304  N2    G A  15     -27.083  -1.165  31.107  1.00  0.00    -0.233 N 
ATOM    305  H21   G A  15     -26.858  -1.883  31.779  1.00  0.00     0.174 HD
ATOM    306  H22   G A  15     -28.039  -0.856  30.992  1.00  0.00     0.174 HD
ATOM    307  O2'   G A  15     -21.928  -3.884  30.995  1.00  0.00    -0.388 OA
ATOM    308 'HO2   G A  15     -21.271  -4.548  30.783  1.00  0.00     0.210 HD
ATOM    309  O3'   G A  15     -20.292  -4.441  28.850  1.00  0.00    -0.279 OA
ATOM    310  P     C A  16     -20.845  -5.277  27.592  1.00  0.00     0.408 P 
ATOM    311  OP2   C A  16     -20.604  -4.487  26.359  1.00  0.00    -0.624 OA
ATOM    312  O5'   C A  16     -22.420  -5.347  27.837  1.00  0.00    -0.287 OA
ATOM    313  OP1   C A  16     -20.300  -6.654  27.701  1.00  0.00    -0.624 OA
ATOM    314  C5'   C A  16     -22.958  -6.080  28.935  1.00  0.00     0.216 C 
ATOM    315  C4'   C A  16     -24.460  -5.914  28.989  1.00  0.00     0.180 C 
ATOM    316  O4'   C A  16     -24.787  -4.522  29.234  1.00  0.00    -0.353 OA
ATOM    317  C3'   C A  16     -25.210  -6.229  27.704  1.00  0.00     0.198 C 
ATOM    318  C1'   C A  16     -26.037  -4.220  28.636  1.00  0.00     0.264 C 
ATOM    319  N1    C A  16     -25.866  -3.055  27.753  1.00  0.00    -0.278 N 
ATOM    320  C2'   C A  16     -26.520  -5.474  27.905  1.00  0.00     0.199 C 
ATOM    321  C2    C A  16     -26.989  -2.294  27.418  1.00  0.00     0.352 A 
ATOM    322  C6    C A  16     -24.635  -2.719  27.261  1.00  0.00     0.102 A 
ATOM    323  N3    C A  16     -26.846  -1.225  26.605  1.00  0.00    -0.177 NA
ATOM    324  O2    C A  16     -28.093  -2.617  27.876  1.00  0.00    -0.244 OA
ATOM    325  C4    C A  16     -25.641  -0.903  26.134  1.00  0.00     0.128 A 
ATOM    326  C5    C A  16     -24.477  -1.660  26.457  1.00  0.00     0.067 A 
ATOM    327  N4    C A  16     -25.549   0.163  25.341  1.00  0.00    -0.384 N 
ATOM    328  H41   C A  16     -24.655   0.442  24.964  1.00  0.00     0.157 HD
ATOM    329  H42   C A  16     -26.380   0.691  25.115  1.00  0.00     0.157 HD
BRANCH 254 330
ATOM    330  N1    T A  13     -19.812   8.117  27.948  1.00  0.00    -0.280 N 
ATOM    331  C6    T A  13     -20.618   8.329  26.854  1.00  0.00     0.104 A 
ATOM    332  C5    T A  13     -21.951   8.301  26.931  1.00  0.00     0.092 A 
ATOM    333  C4    T A  13     -22.589   8.036  28.180  1.00  0.00     0.250 A 
ATOM    334  N3    T A  13     -21.726   7.829  29.231  1.00  0.00    -0.275 N 
ATOM    335  O4    T A  13     -23.803   7.983  28.377  1.00  0.00    -0.268 OA
ATOM    336  C2    T A  13     -20.357   7.854  29.192  1.00  0.00     0.331 A 
ATOM    337  H3    T A  13     -22.143   7.635  30.129  1.00  0.00     0.173 HD
ATOM    338  O2    T A  13     -19.679   7.657  30.184  1.00  0.00    -0.246 OA
ENDBRANCH 254 330
BRANCH 320 339
ATOM    339  O2'   C A  16     -27.393  -6.187  28.760  1.00  0.00    -0.388 OA
ATOM    340 'HO2   C A  16     -27.298  -5.807  29.633  1.00  0.00     0.210 HD
ENDBRANCH 320 339
BRANCH 317 341
ATOM    341  O3'   C A  16     -25.410  -7.630  27.535  1.00  0.00    -0.279 OA
BRANCH 341 342
ATOM    342  P     T A  17     -24.747  -8.385  26.279  1.00  0.00     0.408 P 
ATOM    343  OP2   T A  17     -25.807  -9.162  25.587  1.00  0.00    -0.624 OA
ATOM    344  OP1   T A  17     -23.960  -7.379  25.520  1.00  0.00    -0.624 OA
BRANCH 342 345
ATOM    345  O5'   T A  17     -23.729  -9.417  26.942  1.00  0.00    -0.287 OA
BRANCH 345 346
ATOM    346  C5'   T A  17     -22.357  -9.448  26.555  1.00  0.00     0.216 C 
BRANCH 346 347
ATOM    347  C4'   T A  17     -21.684 -10.685  27.105  1.00  0.00     0.180 C 
ATOM    348  O4'   T A  17     -20.738 -11.189  26.126  1.00  0.00    -0.353 OA
ATOM    349  C1'   T A  17     -19.624 -11.761  26.791  1.00  0.00     0.264 C 
ATOM    350  N1    T A  17     -18.410 -11.066  26.340  1.00  0.00    -0.280 N 
ATOM    351  C2'   T A  17     -19.874 -11.652  28.296  1.00  0.00     0.199 C 
ATOM    352  C2    T A  17     -17.241 -11.801  26.245  1.00  0.00     0.331 A 
ATOM    353  C6    T A  17     -18.431  -9.727  26.022  1.00  0.00     0.104 A 
ATOM    354  N3    T A  17     -16.145 -11.097  25.821  1.00  0.00    -0.275 N 
ATOM    355  O2    T A  17     -17.181 -12.987  26.517  1.00  0.00    -0.246 OA
ATOM    356  C4    T A  17     -16.097  -9.764  25.483  1.00  0.00     0.250 A 
ATOM    357  H3    T A  17     -15.274 -11.607  25.759  1.00  0.00     0.173 HD
ATOM    358  C5    T A  17     -17.342  -9.073  25.607  1.00  0.00     0.092 A 
ATOM    359  O4    T A  17     -15.030  -9.273  25.118  1.00  0.00    -0.268 OA
ATOM    360  C3'   T A  17     -20.845 -10.478  28.357  1.00  0.00     0.198 C 
ATOM    361  O2'   T A  17     -20.492 -12.845  28.740  1.00  0.00    -0.388 OA
ATOM    362 'HO2   T A  17     -21.320 -12.591  29.149  1.00  0.00     0.210 HD
BRANCH 360 363
ATOM    363  O3'   T A  17     -21.648 -10.494  29.535  1.00  0.00    -0.279 OA
BRANCH 363 364
ATOM    364  P     T A  18     -21.286  -9.519  30.762  1.00  0.00     0.408 P 
ATOM    365  OP2   T A  18     -20.516 -10.296  31.767  1.00  0.00    -0.624 OA
ATOM    366  OP1   T A  18     -20.702  -8.281  30.187  1.00  0.00    -0.624 OA
BRANCH 364 367
ATOM    367  O5'   T A  18     -22.702  -9.156  31.396  1.00  0.00    -0.287 OA
BRANCH 367 368
ATOM    368  C5'   T A  18     -22.969  -7.847  31.897  1.00  0.00     0.216 C 
ATOM    369  C4'   T A  18     -24.434  -7.709  32.237  1.00  0.00     0.180 C 
ATOM    370  C3'   T A  18     -25.018  -8.839  33.074  1.00  0.00     0.198 C 
ATOM    371  O4'   T A  18     -25.206  -7.731  31.007  1.00  0.00    -0.353 OA
ATOM    372  C2'   T A  18     -26.495  -8.803  32.697  1.00  0.00     0.199 C 
ATOM    373  O3'   T A  18     -24.809  -8.621  34.466  1.00  0.00    -0.279 OA
ATOM    374  C1'   T A  18     -26.420  -8.432  31.215  1.00  0.00     0.264 C 
ATOM    375  O2'   T A  18     -27.174  -7.773  33.390  1.00  0.00    -0.388 OA
ATOM    376  N1    T A  18     -26.444  -9.593  30.314  1.00  0.00    -0.280 N 
ATOM    377  C6    T A  18     -25.341 -10.403  30.165  1.00  0.00     0.104 A 
ATOM    378  C2    T A  18     -27.614  -9.847  29.622  1.00  0.00     0.331 A 
ATOM    379  C5    T A  18     -25.340 -11.469  29.361  1.00  0.00     0.092 A 
ATOM    380  C4    T A  18     -26.513 -11.803  28.615  1.00  0.00     0.250 A 
ATOM    381  O4    T A  18     -26.635 -12.755  27.846  1.00  0.00    -0.268 OA
ATOM    382  N3    T A  18     -27.577 -10.950  28.807  1.00  0.00    -0.275 N 
ATOM    383  H3    T A  18     -28.422 -11.158  28.297  1.00  0.00     0.173 HD
ATOM    384  O2    T A  18     -28.607  -9.151  29.721  1.00  0.00    -0.246 OA
ATOM    385 'HO2   T A  18     -26.614  -7.517  34.123  1.00  0.00     0.210 HD
ATOM    386  P     T A  19     -23.569  -9.328  35.212  1.00  0.00     0.408 P 
ATOM    387  O5'   T A  19     -24.259 -10.407  36.160  1.00  0.00    -0.287 OA
ATOM    388  OP2   T A  19     -22.744 -10.050  34.209  1.00  0.00    -0.624 OA
ATOM    389  OP1   T A  19     -22.936  -8.302  36.079  1.00  0.00    -0.624 OA
ATOM    390  C5'   T A  19     -25.133 -11.404  35.628  1.00  0.00     0.216 C 
ATOM    391  C4'   T A  19     -26.460 -11.374  36.353  1.00  0.00     0.180 C 
ATOM    392  O4'   T A  19     -26.235 -11.746  37.742  1.00  0.00    -0.353 OA
ATOM    393  C3'   T A  19     -27.147 -10.013  36.402  1.00  0.00     0.198 C 
ATOM    394  C1'   T A  19     -26.576 -10.665  38.588  1.00  0.00     0.264 C 
ATOM    395  N1    T A  19     -25.584 -10.593  39.670  1.00  0.00    -0.280 N 
ATOM    396  C2'   T A  19     -26.633  -9.420  37.708  1.00  0.00     0.199 C 
ATOM    397  C2    T A  19     -26.045 -10.642  40.973  1.00  0.00     0.331 A 
ATOM    398  C6    T A  19     -24.240 -10.480  39.399  1.00  0.00     0.104 A 
ATOM    399  O2    T A  19     -27.226 -10.743  41.255  1.00  0.00    -0.246 OA
ATOM    400  N3    T A  19     -25.072 -10.569  41.936  1.00  0.00    -0.275 N 
ATOM    401  H3    T A  19     -25.387 -10.602  42.893  1.00  0.00     0.173 HD
ATOM    402  C4    T A  19     -23.716 -10.454  41.736  1.00  0.00     0.250 A 
ATOM    403  C5    T A  19     -23.319 -10.410  40.364  1.00  0.00     0.092 A 
ATOM    404  O4    T A  19     -22.965 -10.401  42.710  1.00  0.00    -0.268 OA
ATOM    405  O2'   T A  19     -27.565  -8.512  38.262  1.00  0.00    -0.388 OA
ATOM    406 'HO2   T A  19     -28.422  -8.740  37.896  1.00  0.00     0.210 HD
ATOM    407  O3'   T A  19     -28.567 -10.145  36.399  1.00  0.00    -0.279 OA
ATOM    408  P     G A  20     -29.399  -9.818  35.062  1.00  0.00     0.408 P 
ATOM    409  O5'   G A  20     -30.853 -10.396  35.365  1.00  0.00    -0.287 OA
ATOM    410  OP1   G A  20     -28.807 -10.617  33.960  1.00  0.00    -0.624 OA
ATOM    411  OP2   G A  20     -29.502  -8.343  34.930  1.00  0.00    -0.624 OA
ATOM    412  C5'   G A  20     -31.032 -11.542  36.195  1.00  0.00     0.216 C 
ATOM    413  C4'   G A  20     -32.414 -12.120  35.997  1.00  0.00     0.180 C 
ATOM    414  C3'   G A  20     -32.711 -12.615  34.585  1.00  0.00     0.198 C 
ATOM    415  O4'   G A  20     -33.391 -11.077  36.262  1.00  0.00    -0.353 OA
ATOM    416  O3'   G A  20     -33.590 -13.738  34.601  1.00  0.00    -0.279 OA
ATOM    417  C2'   G A  20     -33.339 -11.399  33.914  1.00  0.00     0.199 C 
ATOM    418  P     G A  21     -33.138 -15.117  33.908  1.00  0.00     0.408 P 
ATOM    419  OP1   G A  21     -34.369 -15.768  33.392  1.00  0.00    -0.624 OA
ATOM    420  O5'   G A  21     -32.250 -14.659  32.666  1.00  0.00    -0.287 OA
ATOM    421  OP2   G A  21     -32.266 -15.850  34.861  1.00  0.00    -0.624 OA
ATOM    422  C5'   G A  21     -32.819 -13.915  31.590  1.00  0.00     0.216 C 
ATOM    423  C4'   G A  21     -32.648 -14.664  30.287  1.00  0.00     0.180 C 
ATOM    424  C3'   G A  21     -33.835 -14.563  29.331  1.00  0.00     0.198 C 
ATOM    425  O4'   G A  21     -32.493 -16.084  30.577  1.00  0.00    -0.353 OA
ATOM    426  C2'   G A  21     -34.608 -15.850  29.598  1.00  0.00     0.199 C 
ATOM    427  O3'   G A  21     -33.410 -14.470  27.973  1.00  0.00    -0.279 OA
ATOM    428  C1'   G A  21     -33.462 -16.820  29.864  1.00  0.00     0.262 C 
ATOM    429  O2'   G A  21     -35.308 -16.276  28.444  1.00  0.00    -0.388 OA
ATOM    430  N9    G A  21     -33.820 -17.996  30.653  1.00  0.00    -0.293 N 
ATOM    431  C8    G A  21     -34.825 -18.101  31.584  1.00  0.00     0.214 A 
ATOM    432  C4    G A  21     -33.208 -19.225  30.605  1.00  0.00     0.187 A 
ATOM    433  N7    G A  21     -34.902 -19.285  32.127  1.00  0.00    -0.234 NA
ATOM    434  C5    G A  21     -33.885 -20.006  31.517  1.00  0.00     0.173 A 
ATOM    435  C6    G A  21     -33.476 -21.355  31.697  1.00  0.00     0.292 A 
ATOM    436  O6    G A  21     -33.946 -22.210  32.456  1.00  0.00    -0.265 OA
ATOM    437  N1    G A  21     -32.401 -21.676  30.876  1.00  0.00    -0.153 N 
ATOM    438  H1    G A  21     -32.044 -22.617  30.938  1.00  0.00     0.187 HD
ATOM    439  C2    G A  21     -31.797 -20.816  29.997  1.00  0.00     0.703 A 
ATOM    440  N2    G A  21     -30.776 -21.313  29.294  1.00  0.00    -0.233 N 
ATOM    441  N3    G A  21     -32.165 -19.561  29.818  1.00  0.00    -0.044 NA
ATOM    442  H22   G A  21     -30.481 -22.270  29.419  1.00  0.00     0.174 HD
ATOM    443  H21   G A  21     -30.299 -20.716  28.633  1.00  0.00     0.174 HD
ATOM    444 'HO2   G A  21     -34.949 -15.776  27.710  1.00  0.00     0.210 HD
ATOM    445  P     G A  22     -33.028 -13.037  27.349  1.00  0.00     0.408 P 
ATOM    446  OP1   G A  22     -33.308 -13.106  25.891  1.00  0.00    -0.624 OA
ATOM    447  O5'   G A  22     -34.077 -12.032  28.006  1.00  0.00    -0.287 OA
ATOM    448  OP2   G A  22     -31.670 -12.666  27.817  1.00  0.00    -0.624 OA
ATOM    449  C5'   G A  22     -35.470 -12.116  27.704  1.00  0.00     0.216 C 
ATOM    450  C4'   G A  22     -36.220 -11.007  28.404  1.00  0.00     0.180 C 
ATOM    451  O4'   G A  22     -35.873 -11.028  29.817  1.00  0.00    -0.353 OA
ATOM    452  C3'   G A  22     -35.881  -9.598  27.934  1.00  0.00     0.198 C 
ATOM    453  C1'   G A  22     -35.653  -9.708  30.278  1.00  0.00     0.262 C 
ATOM    454  C2'   G A  22     -36.127  -8.757  29.180  1.00  0.00     0.199 C 
ATOM    455  N9    G A  22     -34.238  -9.565  30.608  1.00  0.00    -0.293 N 
ATOM    456  O2'   G A  22     -37.508  -8.503  29.361  1.00  0.00    -0.388 OA
ATOM    457 'HO2   G A  22     -37.923  -8.641  28.509  1.00  0.00     0.210 HD
ATOM    458  C8    G A  22     -33.252 -10.510  30.454  1.00  0.00     0.214 A 
ATOM    459  C4    G A  22     -33.629  -8.453  31.136  1.00  0.00     0.187 A 
ATOM    460  N7    G A  22     -32.076 -10.094  30.838  1.00  0.00    -0.234 NA
ATOM    461  C5    G A  22     -32.300  -8.794  31.274  1.00  0.00     0.173 A 
ATOM    462  C6    G A  22     -31.399  -7.834  31.805  1.00  0.00     0.292 A 
ATOM    463  O6    G A  22     -30.185  -7.942  32.005  1.00  0.00    -0.265 OA
ATOM    464  N1    G A  22     -32.046  -6.643  32.113  1.00  0.00    -0.153 N 
ATOM    465  C2    G A  22     -33.384  -6.405  31.936  1.00  0.00     0.703 A 
ATOM    466  H1    G A  22     -31.482  -5.902  32.498  1.00  0.00     0.187 HD
ATOM    467  N3    G A  22     -34.235  -7.287  31.445  1.00  0.00    -0.044 NA
ATOM    468  N2    G A  22     -33.819  -5.193  32.293  1.00  0.00    -0.233 N 
ATOM    469  H21   G A  22     -34.795  -4.967  32.181  1.00  0.00     0.174 HD
ATOM    470  H22   G A  22     -33.178  -4.512  32.671  1.00  0.00     0.174 HD
ATOM    471  O3'   G A  22     -36.708  -9.204  26.841  1.00  0.00    -0.279 OA
ATOM    472  P     T A  23     -36.070  -8.395  25.606  1.00  0.00     0.408 P 
ATOM    473  O5'   T A  23     -35.422  -7.106  26.284  1.00  0.00    -0.287 OA
ATOM    474  OP2   T A  23     -34.977  -9.212  25.023  1.00  0.00    -0.624 OA
ATOM    475  OP1   T A  23     -37.193  -7.947  24.744  1.00  0.00    -0.624 OA
ATOM    476  C5'   T A  23     -36.228  -6.160  26.985  1.00  0.00     0.216 C 
ATOM    477  C4'   T A  23     -35.352  -5.127  27.654  1.00  0.00     0.180 C 
ATOM    478  C3'   T A  23     -34.364  -4.420  26.736  1.00  0.00     0.198 C 
ATOM    479  O4'   T A  23     -34.521  -5.786  28.649  1.00  0.00    -0.353 OA
ATOM    480  O3'   T A  23     -34.963  -3.300  26.090  1.00  0.00    -0.279 OA
ATOM    481  C2'   T A  23     -33.252  -4.019  27.695  1.00  0.00     0.199 C 
ATOM    482  P     G A  24     -34.799  -3.111  24.501  1.00  0.00     0.408 P 
ATOM    483  OP2   G A  24     -34.923  -4.441  23.850  1.00  0.00    -0.624 OA
ATOM    484  OP1   G A  24     -35.706  -2.008  24.093  1.00  0.00    -0.624 OA
ATOM    485  O5'   G A  24     -33.298  -2.609  24.326  1.00  0.00    -0.287 OA
ATOM    486  C5'   G A  24     -32.806  -1.494  25.068  1.00  0.00     0.216 C 
ATOM    487  C4'   G A  24     -31.298  -1.439  24.991  1.00  0.00     0.180 C 
ATOM    488  O4'   G A  24     -30.741  -2.523  25.783  1.00  0.00    -0.353 OA
ATOM    489  C3'   G A  24     -30.701  -1.648  23.608  1.00  0.00     0.198 C 
ATOM    490  C1'   G A  24     -29.562  -3.006  25.161  1.00  0.00     0.262 C 
ATOM    491  C2'   G A  24     -29.295  -2.132  23.936  1.00  0.00     0.199 C 
ATOM    492  N9    G A  24     -29.754  -4.417  24.839  1.00  0.00    -0.293 N 
ATOM    493  O2'   G A  24     -28.460  -1.055  24.319  1.00  0.00    -0.388 OA
ATOM    494 'HO2   G A  24     -28.883  -0.254  24.008  1.00  0.00     0.210 HD
ATOM    495  C4    G A  24     -28.786  -5.302  24.429  1.00  0.00     0.187 A 
ATOM    496  C8    G A  24     -30.930  -5.126  24.882  1.00  0.00     0.214 A 
ATOM    497  C5    G A  24     -29.438  -6.503  24.250  1.00  0.00     0.173 A 
ATOM    498  N3    G A  24     -27.479  -5.018  24.250  1.00  0.00    -0.044 NA
ATOM    499  C6    G A  24     -28.688  -7.631  23.821  1.00  0.00     0.292 A 
ATOM    500  N7    G A  24     -30.791  -6.377  24.540  1.00  0.00    -0.234 NA
ATOM    501  O6    G A  24     -29.080  -8.784  23.607  1.00  0.00    -0.265 OA
ATOM    502  N1    G A  24     -27.347  -7.314  23.644  1.00  0.00    -0.153 N 
ATOM    503  H1    G A  24     -26.733  -8.054  23.338  1.00  0.00     0.187 HD
ATOM    504  C2    G A  24     -26.795  -6.075  23.850  1.00  0.00     0.703 A 
ATOM    505  N2    G A  24     -25.484  -5.969  23.624  1.00  0.00    -0.233 N 
ATOM    506  H22   G A  24     -24.952  -6.773  23.318  1.00  0.00     0.174 HD
ATOM    507  H21   G A  24     -25.028  -5.080  23.760  1.00  0.00     0.174 HD
ATOM    508  O3'   G A  24     -30.703  -0.443  22.847  1.00  0.00    -0.279 OA
ATOM    509  P     C A  25     -30.763  -0.513  21.241  1.00  0.00     0.408 P 
ATOM    510  OP2   C A  25     -31.807  -1.494  20.848  1.00  0.00    -0.624 OA
ATOM    511  OP1   C A  25     -30.846   0.884  20.743  1.00  0.00    -0.624 OA
ATOM    512  O5'   C A  25     -29.344  -1.105  20.827  1.00  0.00    -0.287 OA
ATOM    513  C5'   C A  25     -28.138  -0.416  21.153  1.00  0.00     0.216 C 
ATOM    514  C1'   T A  23     -33.218  -5.227  28.630  1.00  0.00     0.264 C 
ATOM    515  O2'   T A  23     -33.611  -2.873  28.446  1.00  0.00    -0.388 OA
ATOM    516  N1    T A  23     -32.272  -6.272  28.212  1.00  0.00    -0.280 N 
ATOM    517  C6    T A  23     -32.586  -7.159  27.206  1.00  0.00     0.104 A 
ATOM    518  C2    T A  23     -31.051  -6.332  28.860  1.00  0.00     0.331 A 
ATOM    519  C5    T A  23     -31.737  -8.107  26.799  1.00  0.00     0.092 A 
ATOM    520  C4    T A  23     -30.451  -8.229  27.413  1.00  0.00     0.250 A 
ATOM    521  O4    T A  23     -29.572  -9.031  27.098  1.00  0.00    -0.268 OA
ATOM    522  N3    T A  23     -30.208  -7.318  28.417  1.00  0.00    -0.275 N 
ATOM    523  H3    T A  23     -29.319  -7.394  28.886  1.00  0.00     0.173 HD
ATOM    524  O2    T A  23     -30.741  -5.571  29.759  1.00  0.00    -0.246 OA
ATOM    525 'HO2   T A  23     -34.270  -2.404  27.932  1.00  0.00     0.210 HD
ATOM    526  C1'   G A  20     -34.099 -10.768  35.078  1.00  0.00     0.262 C 
ATOM    527  O2'   G A  20     -34.275 -11.785  32.926  1.00  0.00    -0.388 OA
ATOM    528  N9    G A  20     -34.220  -9.317  34.982  1.00  0.00    -0.293 N 
ATOM    529  C8    G A  20     -33.197  -8.404  34.912  1.00  0.00     0.214 A 
ATOM    530  C4    G A  20     -35.387  -8.594  34.939  1.00  0.00     0.187 A 
ATOM    531  N7    G A  20     -33.613  -7.170  34.827  1.00  0.00    -0.234 NA
ATOM    532  C5    G A  20     -34.997  -7.275  34.842  1.00  0.00     0.173 A 
ATOM    533  C6    G A  20     -35.997  -6.271  34.775  1.00  0.00     0.292 A 
ATOM    534  N1    G A  20     -37.275  -6.818  34.823  1.00  0.00    -0.153 N 
ATOM    535  O6    G A  20     -35.857  -5.046  34.684  1.00  0.00    -0.265 OA
ATOM    536  H1    G A  20     -38.051  -6.177  34.781  1.00  0.00     0.187 HD
ATOM    537  C2    G A  20     -37.555  -8.156  34.922  1.00  0.00     0.703 A 
ATOM    538  N3    G A  20     -36.637  -9.102  34.983  1.00  0.00    -0.044 NA
ATOM    539  N2    G A  20     -38.849  -8.487  34.957  1.00  0.00    -0.233 N 
ATOM    540  H21   G A  20     -39.105  -9.461  35.029  1.00  0.00     0.174 HD
ATOM    541  H22   G A  20     -39.563  -7.775  34.910  1.00  0.00     0.174 HD
ATOM    542 'HO2   G A  20     -34.644 -12.623  33.205  1.00  0.00     0.210 HD
BRANCH 513 543
ATOM    543  C4'   C A  25     -26.943  -1.163  20.609  1.00  0.00     0.180 C 
ATOM    544  C3'   C A  25     -26.098  -0.412  19.589  1.00  0.00     0.198 C 
ATOM    545  C2'   C A  25     -25.422  -1.552  18.840  1.00  0.00     0.199 C 
ATOM    546  C1'   C A  25     -26.569  -2.558  18.757  1.00  0.00     0.264 C 
ATOM    547  O4'   C A  25     -27.402  -2.339  19.884  1.00  0.00    -0.353 OA
BRANCH 544 548
ATOM    548  O3'   C A  25     -25.162   0.465  20.209  1.00  0.00    -0.279 OA
BRANCH 548 549
ATOM    549  P     G A  26     -24.953   0.411  21.803  1.00  0.00     0.408 P 
ATOM    550  OP2   G A  26     -25.835   1.429  22.430  1.00  0.00    -0.624 OA
ATOM    551  OP1   G A  26     -25.070  -1.012  22.213  1.00  0.00    -0.624 OA
BRANCH 549 552
ATOM    552  O5'   G A  26     -23.439   0.865  22.011  1.00  0.00    -0.287 OA
BRANCH 552 553
ATOM    553  C5'   G A  26     -23.043   1.581  23.180  1.00  0.00     0.216 C 
ATOM    554  C4'   G A  26     -22.224   2.794  22.802  1.00  0.00     0.180 C 
ATOM    555  C3'   G A  26     -22.856   3.747  21.802  1.00  0.00     0.198 C 
ATOM    556  O4'   G A  26     -21.008   2.373  22.129  1.00  0.00    -0.353 OA
ATOM    557  C2'   G A  26     -21.642   4.505  21.281  1.00  0.00     0.199 C 
ATOM    558  O3'   G A  26     -23.816   4.608  22.408  1.00  0.00    -0.279 OA
ATOM    559  O2'   G A  26     -21.209   5.478  22.212  1.00  0.00    -0.388 OA
ATOM    560  C1'   G A  26     -20.599   3.386  21.223  1.00  0.00     0.262 C 
ATOM    561 'HO2   G A  26     -21.963   5.686  22.762  1.00  0.00     0.210 HD
ATOM    562  N9    G A  26     -20.457   2.797  19.895  1.00  0.00    -0.293 N 
ATOM    563  C4    G A  26     -19.788   3.347  18.829  1.00  0.00     0.187 A 
ATOM    564  C8    G A  26     -20.961   1.597  19.459  1.00  0.00     0.214 A 
ATOM    565  N3    G A  26     -19.143   4.532  18.824  1.00  0.00    -0.044 NA
ATOM    566  C5    G A  26     -19.927   2.438  17.801  1.00  0.00     0.173 A 
ATOM    567  C2    G A  26     -18.596   4.791  17.650  1.00  0.00     0.703 A 
ATOM    568  N2    G A  26     -17.917   5.927  17.472  1.00  0.00    -0.233 N 
ATOM    569  N1    G A  26     -18.674   3.955  16.565  1.00  0.00    -0.153 N 
ATOM    570  H21   G A  26     -17.830   6.576  18.240  1.00  0.00     0.174 HD
ATOM    571  H22   G A  26     -17.494   6.137  16.579  1.00  0.00     0.174 HD
ATOM    572  H1    G A  26     -18.218   4.250  15.714  1.00  0.00     0.187 HD
ATOM    573  C6    G A  26     -19.334   2.731  16.546  1.00  0.00     0.292 A 
ATOM    574  O6    G A  26     -19.346   2.056  15.511  1.00  0.00    -0.265 OA
ATOM    575  N7    G A  26     -20.667   1.338  18.214  1.00  0.00    -0.234 NA
ATOM    576  P     A A  27     -24.913   5.350  21.495  1.00  0.00     0.408 P 
ATOM    577  O5'   A A  27     -24.053   6.306  20.553  1.00  0.00    -0.287 OA
ATOM    578  OP2   A A  27     -25.580   4.333  20.641  1.00  0.00    -0.624 OA
ATOM    579  OP1   A A  27     -25.731   6.200  22.396  1.00  0.00    -0.624 OA
ATOM    580  C5'   A A  27     -23.374   7.442  21.087  1.00  0.00     0.216 C 
ATOM    581  C4'   A A  27     -22.708   8.226  19.978  1.00  0.00     0.180 C 
ATOM    582  C3'   A A  27     -23.578   8.558  18.776  1.00  0.00     0.198 C 
ATOM    583  O4'   A A  27     -21.634   7.437  19.401  1.00  0.00    -0.353 OA
ATOM    584  O3'   A A  27     -24.425   9.679  19.019  1.00  0.00    -0.279 OA
ATOM    585  C2'   A A  27     -22.535   8.838  17.702  1.00  0.00     0.199 C 
ATOM    586  P     G A  28     -25.727   9.906  18.102  1.00  0.00     0.408 P 
ATOM    587  OP2   G A  28     -26.512   8.647  18.081  1.00  0.00    -0.624 OA
ATOM    588  OP1   G A  28     -26.373  11.165  18.558  1.00  0.00    -0.624 OA
ATOM    589  O5'   G A  28     -25.135  10.152  16.642  1.00  0.00    -0.287 OA
ATOM    590  C5'   G A  28     -24.679  11.443  16.243  1.00  0.00     0.216 C 
ATOM    591  C4'   G A  28     -23.860  11.346  14.976  1.00  0.00     0.180 C 
ATOM    592  C3'   G A  28     -24.646  11.253  13.679  1.00  0.00     0.198 C 
ATOM    593  O4'   G A  28     -23.090  10.117  14.978  1.00  0.00    -0.353 OA
ATOM    594  C2'   G A  28     -23.614  10.669  12.719  1.00  0.00     0.199 C 
ATOM    595  C1'   G A  28     -22.843   9.719  13.639  1.00  0.00     0.262 C 
ATOM    596  N9    G A  28     -23.231   8.320  13.489  1.00  0.00    -0.293 N 
ATOM    597  C8    G A  28     -23.852   7.522  14.419  1.00  0.00     0.214 A 
ATOM    598  C4    G A  28     -23.041   7.537  12.374  1.00  0.00     0.187 A 
ATOM    599  N7    G A  28     -24.066   6.306  13.995  1.00  0.00    -0.234 NA
ATOM    600  C5    G A  28     -23.558   6.301  12.702  1.00  0.00     0.173 A 
ATOM    601  C6    G A  28     -23.505   5.261  11.737  1.00  0.00     0.292 A 
ATOM    602  O6    G A  28     -23.906   4.096  11.834  1.00  0.00    -0.265 OA
ATOM    603  N1    G A  28     -22.908   5.689  10.556  1.00  0.00    -0.153 N 
ATOM    604  C2    G A  28     -22.424   6.951  10.332  1.00  0.00     0.703 A 
ATOM    605  H1    G A  28     -22.828   5.016   9.810  1.00  0.00     0.187 HD
ATOM    606  N3    G A  28     -22.463   7.929  11.220  1.00  0.00    -0.044 NA
ATOM    607  O2'   A A  27     -21.962  10.123  17.869  1.00  0.00    -0.388 OA
ATOM    608  C1'   A A  27     -21.477   7.785  18.035  1.00  0.00     0.262 C 
ATOM    609 'HO2   A A  27     -22.688  10.736  17.975  1.00  0.00     0.210 HD
ATOM    610  N9    A A  27     -21.594   6.570  17.229  1.00  0.00    -0.294 N 
ATOM    611  C4    A A  27     -21.142   6.409  15.942  1.00  0.00     0.167 A 
ATOM    612  C8    A A  27     -22.167   5.372  17.577  1.00  0.00     0.214 A 
ATOM    613  N3    A A  27     -20.512   7.318  15.178  1.00  0.00    -0.222 NA
ATOM    614  C5    A A  27     -21.470   5.112  15.587  1.00  0.00     0.149 A 
ATOM    615  C2    A A  27     -20.222   6.809  13.984  1.00  0.00     0.237 A 
ATOM    616  N1    A A  27     -20.473   5.584  13.501  1.00  0.00    -0.222 NA
ATOM    617  C6    A A  27     -21.108   4.694  14.294  1.00  0.00     0.155 A 
ATOM    618  N6    A A  27     -21.356   3.476  13.812  1.00  0.00    -0.382 N 
ATOM    619  H62   A A  27     -21.075   3.234  12.872  1.00  0.00     0.157 HD
ATOM    620  H61   A A  27     -21.830   2.796  14.389  1.00  0.00     0.157 HD
ATOM    621  N7    A A  27     -22.117   4.467  16.631  1.00  0.00    -0.236 NA
BRANCH 592 622
ATOM    622  O3'   G A  28     -25.125  12.527  13.256  1.00  0.00    -0.279 OA
BRANCH 622 623
ATOM    623  P     A A  29     -26.706  12.770  13.081  1.00  0.00     0.408 P 
ATOM    624  OP2   A A  29     -27.082  12.436  11.683  1.00  0.00    -0.624 OA
ATOM    625  OP1   A A  29     -27.385  12.079  14.207  1.00  0.00    -0.624 OA
BRANCH 623 626
ATOM    626  O5'   A A  29     -26.881  14.341  13.285  1.00  0.00    -0.287 OA
BRANCH 626 627
ATOM    627  C5'   A A  29     -25.785  15.152  13.707  1.00  0.00     0.216 C 
BRANCH 627 628
ATOM    628  C4'   A A  29     -25.537  14.967  15.187  1.00  0.00     0.180 C 
ATOM    629  C3'   A A  29     -25.792  16.188  16.060  1.00  0.00     0.198 C 
ATOM    630  O3'   A A  29     -27.172  16.329  16.382  1.00  0.00    -0.279 OA
ATOM    631  C2'   A A  29     -24.935  15.893  17.286  1.00  0.00     0.199 C 
ATOM    632  P     G A  30     -27.740  17.759  16.854  1.00  0.00     0.408 P 
ATOM    633  OP1   G A  30     -29.193  17.594  17.110  1.00  0.00    -0.624 OA
ATOM    634  O5'   G A  30     -27.019  18.021  18.252  1.00  0.00    -0.287 OA
ATOM    635  OP2   G A  30     -27.278  18.789  15.889  1.00  0.00    -0.624 OA
ATOM    636  C5'   G A  30     -27.254  17.168  19.372  1.00  0.00     0.216 C 
ATOM    637  C4'   G A  30     -26.671  17.777  20.626  1.00  0.00     0.180 C 
ATOM    638  C3'   G A  30     -27.186  19.175  20.971  1.00  0.00     0.198 C 
ATOM    639  O4'   G A  30     -25.232  17.913  20.451  1.00  0.00    -0.353 OA
ATOM    640  O3'   G A  30     -27.410  19.316  22.373  1.00  0.00    -0.279 OA
ATOM    641  C2'   G A  30     -26.073  20.094  20.475  1.00  0.00     0.199 C 
ATOM    642  P     G A  31     -28.746  18.713  23.037  1.00  0.00     0.408 P 
ATOM    643  OP1   G A  31     -29.720  18.457  21.944  1.00  0.00    -0.624 OA
ATOM    644  OP2   G A  31     -29.132  19.594  24.169  1.00  0.00    -0.624 OA
ATOM    645  O5'   G A  31     -28.288  17.303  23.625  1.00  0.00    -0.287 OA
ATOM    646  C5'   G A  31     -27.739  17.189  24.938  1.00  0.00     0.216 C 
ATOM    647  C4'   G A  31     -28.356  16.013  25.659  1.00  0.00     0.180 C 
ATOM    648  C3'   G A  31     -28.091  15.951  27.158  1.00  0.00     0.198 C 
ATOM    649  O4'   G A  31     -27.782  14.784  25.137  1.00  0.00    -0.353 OA
ATOM    650  O3'   G A  31     -29.032  16.726  27.894  1.00  0.00    -0.279 OA
ATOM    651  C2'   G A  31     -28.214  14.460  27.449  1.00  0.00     0.199 C 
ATOM    652  P     G A  32     -28.679  17.202  29.390  1.00  0.00     0.408 P 
ATOM    653  OP1   G A  32     -29.860  17.937  29.909  1.00  0.00    -0.624 OA
ATOM    654  O5'   G A  32     -28.544  15.840  30.208  1.00  0.00    -0.287 OA
ATOM    655  OP2   G A  32     -27.352  17.867  29.368  1.00  0.00    -0.624 OA
ATOM    656  C5'   G A  32     -29.672  14.992  30.418  1.00  0.00     0.216 C 
ATOM    657  C4'   G A  32     -29.426  14.077  31.596  1.00  0.00     0.180 C 
ATOM    658  C3'   G A  32     -28.616  14.676  32.735  1.00  0.00     0.198 C 
ATOM    659  O4'   G A  32     -28.635  12.942  31.156  1.00  0.00    -0.353 OA
ATOM    660  C2'   G A  32     -28.026  13.441  33.406  1.00  0.00     0.199 C 
ATOM    661  O3'   G A  32     -29.440  15.440  33.612  1.00  0.00    -0.279 OA
ATOM    662  O2'   G A  32     -28.973  12.808  34.247  1.00  0.00    -0.388 OA
ATOM    663  C1'   G A  32     -27.767  12.535  32.200  1.00  0.00     0.262 C 
ATOM    664 'HO2   G A  32     -28.956  13.271  35.085  1.00  0.00     0.210 HD
ATOM    665  N9    G A  32     -26.395  12.596  31.705  1.00  0.00    -0.293 N 
ATOM    666  C4    G A  32     -25.322  11.877  32.178  1.00  0.00     0.187 A 
ATOM    667  C8    G A  32     -25.916  13.372  30.679  1.00  0.00     0.214 A 
ATOM    668  N3    G A  32     -25.350  10.987  33.192  1.00  0.00    -0.044 NA
ATOM    669  C5    G A  32     -24.252  12.264  31.400  1.00  0.00     0.173 A 
ATOM    670  C2    G A  32     -24.161  10.458  33.415  1.00  0.00     0.703 A 
ATOM    671  N2    G A  32     -24.009   9.558  34.390  1.00  0.00    -0.233 N 
ATOM    672  N1    G A  32     -23.034  10.772  32.699  1.00  0.00    -0.153 N 
ATOM    673  H21   G A  32     -24.809   9.294  34.945  1.00  0.00     0.174 HD
ATOM    674  H22   G A  32     -23.106   9.146  34.573  1.00  0.00     0.174 HD
ATOM    675  C6    G A  32     -22.981  11.682  31.651  1.00  0.00     0.292 A 
ATOM    676  H1    G A  32     -22.172  10.309  32.948  1.00  0.00     0.187 HD
ATOM    677  O6    G A  32     -21.911  11.889  31.071  1.00  0.00    -0.265 OA
ATOM    678  N7    G A  32     -24.641  13.207  30.460  1.00  0.00    -0.234 NA
ATOM    679  P     T A  33     -28.765  16.377  34.730  1.00  0.00     0.408 P 
ATOM    680  OP1   T A  33     -29.824  17.281  35.246  1.00  0.00    -0.624 OA
ATOM    681  O5'   T A  33     -28.372  15.364  35.896  1.00  0.00    -0.287 OA
ATOM    682  OP2   T A  33     -27.517  16.958  34.168  1.00  0.00    -0.624 OA
ATOM    683  C5'   T A  33     -27.058  15.350  36.451  1.00  0.00     0.216 C 
ATOM    684  C4'   T A  33     -26.817  14.053  37.184  1.00  0.00     0.180 C 
ATOM    685  C3'   T A  33     -25.713  14.094  38.233  1.00  0.00     0.198 C 
ATOM    686  O4'   T A  33     -26.386  13.048  36.224  1.00  0.00    -0.353 OA
ATOM    687  O3'   T A  33     -26.213  14.510  39.502  1.00  0.00    -0.279 OA
ATOM    688  C2'   T A  33     -25.217  12.654  38.247  1.00  0.00     0.199 C 
ATOM    689  P     T A  34     -25.649  15.853  40.185  1.00  0.00     0.408 P 
ATOM    690  OP1   T A  34     -26.718  16.380  41.071  1.00  0.00    -0.624 OA
ATOM    691  O5'   T A  34     -24.451  15.344  41.104  1.00  0.00    -0.287 OA
ATOM    692  OP2   T A  34     -25.080  16.726  39.126  1.00  0.00    -0.624 OA
ATOM    693  C5'   T A  34     -24.692  14.483  42.216  1.00  0.00     0.216 C 
ATOM    694  C4'   T A  34     -23.517  13.555  42.423  1.00  0.00     0.180 C 
ATOM    695  O4'   T A  34     -23.250  12.848  41.181  1.00  0.00    -0.353 OA
ATOM    696  C3'   T A  34     -22.200  14.238  42.768  1.00  0.00     0.198 C 
ATOM    697  C1'   T A  34     -21.851  12.728  40.989  1.00  0.00     0.264 C 
ATOM    698  C2'   T A  34     -21.168  13.240  42.257  1.00  0.00     0.199 C 
ATOM    699  N1    T A  34     -21.484  13.476  39.777  1.00  0.00    -0.280 N 
ATOM    700  C6    T A  34     -22.333  14.411  39.231  1.00  0.00     0.104 A 
ATOM    701  C2    T A  34     -20.254  13.209  39.202  1.00  0.00     0.331 A 
ATOM    702  C5    T A  34     -22.022  15.103  38.131  1.00  0.00     0.092 A 
ATOM    703  C4    T A  34     -20.769  14.885  37.480  1.00  0.00     0.250 A 
ATOM    704  O4    T A  34     -20.371  15.461  36.469  1.00  0.00    -0.268 OA
ATOM    705  N3    T A  34     -19.970  13.939  38.077  1.00  0.00    -0.275 N 
ATOM    706  H3    T A  34     -19.075  13.764  37.646  1.00  0.00     0.173 HD
ATOM    707  O2    T A  34     -19.475  12.390  39.654  1.00  0.00    -0.246 OA
ATOM    708  C1'   T A  33     -25.313  12.298  36.764  1.00  0.00     0.264 C 
ATOM    709  O2'   T A  33     -26.094  11.816  38.974  1.00  0.00    -0.388 OA
ATOM    710  N1    T A  33     -24.097  12.607  35.997  1.00  0.00    -0.280 N 
ATOM    711  C6    T A  33     -24.111  13.532  34.976  1.00  0.00     0.104 A 
ATOM    712  C2    T A  33     -22.934  11.940  36.336  1.00  0.00     0.331 A 
ATOM    713  C5    T A  33     -23.018  13.831  34.267  1.00  0.00     0.092 A 
ATOM    714  C4    T A  33     -21.779  13.184  34.558  1.00  0.00     0.250 A 
ATOM    715  O4    T A  33     -20.712  13.366  33.973  1.00  0.00    -0.268 OA
ATOM    716  N3    T A  33     -21.835  12.275  35.588  1.00  0.00    -0.275 N 
ATOM    717  H3    T A  33     -20.974  11.807  35.824  1.00  0.00     0.173 HD
ATOM    718  O2    T A  33     -22.880  11.115  37.228  1.00  0.00    -0.246 OA
ATOM    719 'HO2   T A  33     -26.402  12.324  39.725  1.00  0.00     0.210 HD
ATOM    720  C1'   G A  31     -27.581  13.861  26.194  1.00  0.00     0.262 C 
ATOM    721  O2'   G A  31     -29.571  14.062  27.510  1.00  0.00    -0.388 OA
ATOM    722  N9    G A  31     -26.149  13.610  26.323  1.00  0.00    -0.293 N 
ATOM    723  C4    G A  31     -25.554  12.648  27.104  1.00  0.00     0.187 A 
ATOM    724  C8    G A  31     -25.129  14.284  25.696  1.00  0.00     0.214 A 
ATOM    725  N3    G A  31     -26.193  11.759  27.891  1.00  0.00    -0.044 NA
ATOM    726  C5    G A  31     -24.198  12.799  26.900  1.00  0.00     0.173 A 
ATOM    727  C2    G A  31     -25.349  10.961  28.520  1.00  0.00     0.703 A 
ATOM    728  N2    G A  31     -25.817  10.021  29.346  1.00  0.00    -0.233 N 
ATOM    729  N1    G A  31     -23.986  11.026  28.387  1.00  0.00    -0.153 N 
ATOM    730  H21   G A  31     -26.814   9.935  29.477  1.00  0.00     0.174 HD
ATOM    731  H22   G A  31     -25.184   9.406  29.834  1.00  0.00     0.174 HD
ATOM    732  C6    G A  31     -23.305  11.931  27.582  1.00  0.00     0.292 A 
ATOM    733  H1    G A  31     -23.425  10.373  28.911  1.00  0.00     0.187 HD
ATOM    734  O6    G A  31     -22.069  11.902  27.533  1.00  0.00    -0.265 OA
ATOM    735  N7    G A  31     -23.945  13.835  26.010  1.00  0.00    -0.234 NA
ATOM    736 'HO2   G A  31     -30.080  14.854  27.683  1.00  0.00     0.210 HD
ATOM    737  O2'   G A  30     -25.993  21.271  21.258  1.00  0.00    -0.388 OA
ATOM    738  C1'   G A  30     -24.846  19.235  20.750  1.00  0.00     0.262 C 
ATOM    739 'HO2   G A  30     -26.354  21.054  22.117  1.00  0.00     0.210 HD
ATOM    740  N9    G A  30     -23.675  19.571  19.946  1.00  0.00    -0.293 N 
ATOM    741  C8    G A  30     -23.567  19.531  18.577  1.00  0.00     0.214 A 
ATOM    742  C4    G A  30     -22.457  19.994  20.418  1.00  0.00     0.187 A 
ATOM    743  N7    G A  30     -22.390  19.893  18.144  1.00  0.00    -0.234 NA
ATOM    744  C5    G A  30     -21.678  20.189  19.298  1.00  0.00     0.173 A 
ATOM    745  C6    G A  30     -20.341  20.636  19.466  1.00  0.00     0.292 A 
ATOM    746  N1    G A  30     -20.026  20.811  20.809  1.00  0.00    -0.153 N 
ATOM    747  O6    G A  30     -19.491  20.869  18.601  1.00  0.00    -0.265 OA
ATOM    748  C2    G A  30     -20.882  20.586  21.855  1.00  0.00     0.703 A 
ATOM    749  H1    G A  30     -19.093  21.129  21.024  1.00  0.00     0.187 HD
ATOM    750  N2    G A  30     -20.393  20.810  23.077  1.00  0.00    -0.233 N 
ATOM    751  N3    G A  30     -22.127  20.171  21.714  1.00  0.00    -0.044 NA
ATOM    752  H21   G A  30     -20.986  20.657  23.879  1.00  0.00     0.174 HD
ATOM    753  H22   G A  30     -19.442  21.125  23.200  1.00  0.00     0.174 HD
ATOM    754  O2'   A A  29     -25.573  14.963  18.142  1.00  0.00    -0.388 OA
ATOM    755  C1'   A A  29     -23.721  15.214  16.649  1.00  0.00     0.262 C 
ATOM    756 'HO2   A A  29     -26.494  14.934  17.879  1.00  0.00     0.210 HD
ATOM    757  O4'   A A  29     -24.131  14.675  15.404  1.00  0.00    -0.353 OA
BRANCH 698 758
ATOM    758  O2'   T A  34     -21.010  12.159  43.157  1.00  0.00    -0.388 OA
ATOM    759 'HO2   T A  34     -20.070  11.994  43.230  1.00  0.00     0.210 HD
ENDBRANCH 698 758
BRANCH 696 760
ATOM    760  O3'   T A  34     -22.084  14.470  44.170  1.00  0.00    -0.279 OA
BRANCH 760 761
ATOM    761  P     C A  35     -22.983  13.623  45.204  1.00  0.00     0.408 P 
ATOM    762  OP1   C A  35     -24.253  14.369  45.393  1.00  0.00    -0.624 OA
ATOM    763  OP2   C A  35     -22.161  13.264  46.388  1.00  0.00    -0.624 OA
BRANCH 761 764
ATOM    764  O5'   C A  35     -23.314  12.280  44.412  1.00  0.00    -0.287 OA
BRANCH 764 765
ATOM    765  C5'   C A  35     -23.877  11.151  45.079  1.00  0.00     0.216 C 
BRANCH 765 766
ATOM    766  C4'   C A  35     -25.254  10.856  44.532  1.00  0.00     0.180 C 
ATOM    767  O4'   C A  35     -25.298  11.262  43.136  1.00  0.00    -0.353 OA
ATOM    768  C1'   C A  35     -25.993  10.290  42.374  1.00  0.00     0.264 C 
ATOM    769  N1    C A  35     -25.042   9.662  41.441  1.00  0.00    -0.278 N 
ATOM    770  C2'   C A  35     -26.629   9.309  43.358  1.00  0.00     0.199 C 
ATOM    771  C6    C A  35     -23.702   9.644  41.713  1.00  0.00     0.102 A 
ATOM    772  C2    C A  35     -25.530   9.083  40.267  1.00  0.00     0.352 A 
ATOM    773  C5    C A  35     -22.833   9.075  40.869  1.00  0.00     0.067 A 
ATOM    774  C4    C A  35     -23.359   8.493  39.679  1.00  0.00     0.128 A 
ATOM    775  N4    C A  35     -22.544   7.914  38.798  1.00  0.00    -0.384 N 
ATOM    776  N3    C A  35     -24.664   8.507  39.404  1.00  0.00    -0.177 NA
ATOM    777  H41   C A  35     -21.549   7.882  38.968  1.00  0.00     0.157 HD
ATOM    778  H42   C A  35     -22.932   7.508  37.959  1.00  0.00     0.157 HD
ATOM    779  O2    C A  35     -26.749   9.113  40.044  1.00  0.00    -0.244 OA
ATOM    780  C3'   C A  35     -25.650   9.385  44.524  1.00  0.00     0.198 C 
ATOM    781  O2'   C A  35     -27.905   9.798  43.727  1.00  0.00    -0.388 OA
ATOM    782  O3'   C A  35     -26.249   8.997  45.758  1.00  0.00    -0.279 OA
ATOM    783  P     A A  36     -25.667   7.736  46.569  1.00  0.00     0.408 P 
ATOM    784  OP2   A A  36     -24.292   8.070  47.018  1.00  0.00    -0.624 OA
ATOM    785  O5'   A A  36     -25.566   6.583  45.472  1.00  0.00    -0.287 OA
ATOM    786  OP1   A A  36     -26.692   7.347  47.571  1.00  0.00    -0.624 OA
ATOM    787  C5'   A A  36     -26.263   5.346  45.628  1.00  0.00     0.216 C 
ATOM    788  C4'   A A  36     -27.574   5.383  44.874  1.00  0.00     0.180 C 
ATOM    789  C3'   A A  36     -27.909   4.112  44.097  1.00  0.00     0.198 C 
ATOM    790  O4'   A A  36     -27.512   6.446  43.879  1.00  0.00    -0.353 OA
ATOM    791  O3'   A A  36     -28.727   3.231  44.863  1.00  0.00    -0.279 OA
ATOM    792  C2'   A A  36     -28.632   4.641  42.865  1.00  0.00     0.199 C 
ATOM    793  P     A A  37     -28.153   1.801  45.321  1.00  0.00     0.408 P 
ATOM    794  OP2   A A  37     -26.688   1.922  45.528  1.00  0.00    -0.624 OA
ATOM    795  OP1   A A  37     -29.012   1.324  46.437  1.00  0.00    -0.624 OA
ATOM    796  O5'   A A  37     -28.405   0.859  44.060  1.00  0.00    -0.287 OA
ATOM    797  O2'   A A  36     -29.978   4.966  43.158  1.00  0.00    -0.388 OA
ATOM    798  C1'   A A  36     -27.860   5.931  42.610  1.00  0.00     0.262 C 
ATOM    799 'HO2   A A  36     -30.183   4.547  43.995  1.00  0.00     0.210 HD
ATOM    800  N9    A A  36     -26.633   5.747  41.836  1.00  0.00    -0.294 N 
ATOM    801  C8    A A  36     -25.362   6.156  42.161  1.00  0.00     0.214 A 
ATOM    802  C4    A A  36     -26.522   5.117  40.620  1.00  0.00     0.167 A 
ATOM    803  N7    A A  36     -24.460   5.844  41.263  1.00  0.00    -0.236 NA
ATOM    804  C5    A A  36     -25.184   5.183  40.281  1.00  0.00     0.149 A 
ATOM    805  C6    A A  36     -24.807   4.598  39.060  1.00  0.00     0.155 A 
ATOM    806  N6    A A  36     -23.554   4.583  38.602  1.00  0.00    -0.382 N 
ATOM    807  N1    A A  36     -25.772   4.020  38.315  1.00  0.00    -0.222 NA
ATOM    808  H62   A A  36     -23.351   4.144  37.716  1.00  0.00     0.157 HD
ATOM    809  H61   A A  36     -22.817   5.009  39.145  1.00  0.00     0.157 HD
ATOM    810  C2    A A  36     -27.030   4.034  38.774  1.00  0.00     0.237 A 
ATOM    811  N3    A A  36     -27.509   4.551  39.903  1.00  0.00    -0.222 NA
ATOM    812 'HO2   C A  35     -28.203   9.260  44.461  1.00  0.00     0.210 HD
BRANCH 796 813
ATOM    813  C5'   A A  37     -29.617   0.118  43.927  1.00  0.00     0.216 C 
BRANCH 813 814
ATOM    814  C4'   A A  37     -29.516  -0.849  42.769  1.00  0.00     0.180 C 
ATOM    815  O4'   A A  37     -29.202  -0.117  41.557  1.00  0.00    -0.353 OA
ATOM    816  C1'   A A  37     -28.409  -0.926  40.705  1.00  0.00     0.262 C 
ATOM    817  C2'   A A  37     -28.178  -2.265  41.410  1.00  0.00     0.199 C 
ATOM    818  C3'   A A  37     -28.403  -1.883  42.869  1.00  0.00     0.198 C 
BRANCH 816 819
ATOM    819  N9    A A  37     -27.172  -0.206  40.403  1.00  0.00    -0.294 N 
ATOM    820  C8    A A  37     -26.732   0.981  40.931  1.00  0.00     0.214 A 
ATOM    821  N7    A A  37     -25.571   1.370  40.461  1.00  0.00    -0.236 NA
ATOM    822  C5    A A  37     -25.225   0.370  39.561  1.00  0.00     0.149 A 
ATOM    823  C6    A A  37     -24.105   0.190  38.730  1.00  0.00     0.155 A 
ATOM    824  C4    A A  37     -26.203  -0.606  39.516  1.00  0.00     0.167 A 
ATOM    825  N6    A A  37     -23.082   1.043  38.669  1.00  0.00    -0.382 N 
ATOM    826  N1    A A  37     -24.071  -0.914  37.955  1.00  0.00    -0.222 NA
ATOM    827  H61   A A  37     -23.088   1.874  39.242  1.00  0.00     0.157 HD
ATOM    828  H62   A A  37     -22.308   0.848  38.053  1.00  0.00     0.157 HD
ATOM    829  C2    A A  37     -25.095  -1.775  38.017  1.00  0.00     0.237 A 
ATOM    830  N3    A A  37     -26.200  -1.716  38.758  1.00  0.00    -0.222 NA
ENDBRANCH 816 819
BRANCH 817 831
ATOM    831  O2'   A A  37     -29.157  -3.184  40.960  1.00  0.00    -0.388 OA
ATOM    832 'HO2   A A  37     -29.349  -3.772  41.692  1.00  0.00     0.210 HD
ENDBRANCH 817 831
BRANCH 818 833
ATOM    833  O3'   A A  37     -28.797  -2.992  43.674  1.00  0.00    -0.279 OA
BRANCH 833 834
ATOM    834  P     A A  38     -28.226  -3.140  45.171  1.00  0.00     0.408 P 
ATOM    835  OP1   A A  38     -29.390  -3.310  46.075  1.00  0.00    -0.624 OA
ATOM    836  OP2   A A  38     -27.266  -2.031  45.411  1.00  0.00    -0.624 OA
BRANCH 834 837
ATOM    837  O5'   A A  38     -27.410  -4.510  45.147  1.00  0.00    -0.287 OA
BRANCH 837 838
ATOM    838  C5'   A A  38     -26.042  -4.561  45.556  1.00  0.00     0.216 C 
BRANCH 838 839
ATOM    839  C4'   A A  38     -25.423  -5.877  45.145  1.00  0.00     0.180 C 
ATOM    840  C3'   A A  38     -23.897  -5.921  45.208  1.00  0.00     0.198 C 
ATOM    841  C2'   A A  38     -23.535  -6.917  44.110  1.00  0.00     0.199 C 
ATOM    842  O2'   A A  38     -23.679  -8.261  44.528  1.00  0.00    -0.388 OA
ATOM    843  C1'   A A  38     -24.613  -6.621  43.068  1.00  0.00     0.262 C 
ATOM    844 'HO2   A A  38     -24.604  -8.406  44.734  1.00  0.00     0.210 HD
ATOM    845  O4'   A A  38     -25.749  -6.126  43.751  1.00  0.00    -0.353 OA
BRANCH 840 846
ATOM    846  O3'   A A  38     -23.368  -6.306  46.486  1.00  0.00    -0.279 OA
ATOM    847  P     T A  39     -21.775  -6.348  46.747  1.00  0.00     0.408 P 
ATOM    848  OP2   T A  39     -21.351  -7.771  46.680  1.00  0.00    -0.624 OA
ATOM    849  OP1   T A  39     -21.087  -5.341  45.902  1.00  0.00    -0.624 OA
ATOM    850  O5'   T A  39     -21.626  -5.866  48.258  1.00  0.00    -0.287 OA
ATOM    851  C5'   T A  39     -22.615  -5.033  48.865  1.00  0.00     0.216 C 
ATOM    852  C4'   T A  39     -21.959  -4.026  49.781  1.00  0.00     0.180 C 
ATOM    853  O4'   T A  39     -21.559  -4.704  51.008  1.00  0.00    -0.353 OA
ATOM    854  C3'   T A  39     -20.688  -3.376  49.237  1.00  0.00     0.198 C 
ATOM    855  C1'   T A  39     -20.166  -4.567  51.193  1.00  0.00     0.264 C 
ATOM    856  C2'   T A  39     -19.583  -4.251  49.819  1.00  0.00     0.199 C 
ATOM    857  N1    T A  39     -19.646  -5.798  51.809  1.00  0.00    -0.280 N 
ATOM    858  O2'   T A  39     -18.379  -3.525  49.995  1.00  0.00    -0.388 OA
ATOM    859 'HO2   T A  39     -18.290  -2.945  49.239  1.00  0.00     0.210 HD
ATOM    860  C2    T A  39     -20.087  -7.018  51.321  1.00  0.00     0.331 A 
ATOM    861  C6    T A  39     -18.743  -5.735  52.846  1.00  0.00     0.104 A 
ATOM    862  N3    T A  39     -19.560  -8.118  51.950  1.00  0.00    -0.275 N 
ATOM    863  O2    T A  39     -20.879  -7.124  50.404  1.00  0.00    -0.246 OA
ATOM    864  H3    T A  39     -19.868  -9.015  51.610  1.00  0.00     0.173 HD
ATOM    865  C4    T A  39     -18.661  -8.127  52.989  1.00  0.00     0.250 A 
ATOM    866  O4    T A  39     -18.287  -9.203  53.455  1.00  0.00    -0.268 OA
ATOM    867  C5    T A  39     -18.251  -6.831  53.433  1.00  0.00     0.092 A 
ATOM    868  O3'   T A  39     -20.592  -2.018  49.661  1.00  0.00    -0.279 OA
ATOM    869  P     C A  40     -19.868  -0.930  48.721  1.00  0.00     0.408 P 
ATOM    870  OP2   C A  40     -20.827   0.175  48.463  1.00  0.00    -0.624 OA
ATOM    871  O5'   C A  40     -19.611  -1.693  47.345  1.00  0.00    -0.287 OA
ATOM    872  OP1   C A  40     -18.547  -0.629  49.330  1.00  0.00    -0.624 OA
ATOM    873  C5'   C A  40     -19.168  -0.983  46.188  1.00  0.00     0.216 C 
ATOM    874  C4'   C A  40     -19.028  -1.926  45.015  1.00  0.00     0.180 C 
ATOM    875  O4'   C A  40     -20.290  -2.627  44.833  1.00  0.00    -0.353 OA
ATOM    876  C3'   C A  40     -18.732  -1.241  43.682  1.00  0.00     0.198 C 
ATOM    877  C1'   C A  40     -20.758  -2.433  43.515  1.00  0.00     0.264 C 
ATOM    878  N1    C A  40     -21.818  -1.408  43.548  1.00  0.00    -0.278 N 
ATOM    879  C2'   C A  40     -19.537  -2.062  42.679  1.00  0.00     0.199 C 
ATOM    880  C6    C A  40     -22.348  -0.992  44.738  1.00  0.00     0.102 A 
ATOM    881  C2    C A  40     -22.277  -0.864  42.343  1.00  0.00     0.352 A 
ATOM    882  C5    C A  40     -23.311  -0.062  44.779  1.00  0.00     0.067 A 
ATOM    883  C4    C A  40     -23.759   0.474  43.538  1.00  0.00     0.128 A 
ATOM    884  N3    C A  40     -23.249   0.077  42.371  1.00  0.00    -0.177 NA
ATOM    885  N4    C A  40     -24.715   1.402  43.513  1.00  0.00    -0.384 N 
ATOM    886  H41   C A  40     -25.127   1.732  44.375  1.00  0.00     0.157 HD
ATOM    887  H42   C A  40     -25.025   1.774  42.627  1.00  0.00     0.157 HD
ATOM    888  O2    C A  40     -21.783  -1.257  41.277  1.00  0.00    -0.244 OA
ATOM    889  O2'   C A  40     -18.854  -3.249  42.320  1.00  0.00    -0.388 OA
ATOM    890 'HO2   C A  40     -17.946  -3.143  42.602  1.00  0.00     0.210 HD
ATOM    891  O3'   C A  40     -17.336  -1.254  43.389  1.00  0.00    -0.279 OA
ATOM    892  P     C A  41     -16.496   0.116  43.447  1.00  0.00     0.408 P 
ATOM    893  O5'   C A  41     -17.203   1.049  42.366  1.00  0.00    -0.287 OA
ATOM    894  OP2   C A  41     -16.695   0.729  44.784  1.00  0.00    -0.624 OA
ATOM    895  OP1   C A  41     -15.119  -0.183  42.973  1.00  0.00    -0.624 OA
ATOM    896  C5'   C A  41     -17.189   0.711  40.980  1.00  0.00     0.216 C 
ATOM    897  C4'   C A  41     -17.781   1.837  40.165  1.00  0.00     0.180 C 
ATOM    898  O4'   C A  41     -19.220   1.865  40.379  1.00  0.00    -0.353 OA
ATOM    899  C3'   C A  41     -17.306   3.235  40.540  1.00  0.00     0.198 C 
ATOM    900  C1'   C A  41     -19.658   3.206  40.508  1.00  0.00     0.264 C 
ATOM    901  N1    C A  41     -20.129   3.415  41.887  1.00  0.00    -0.278 N 
ATOM    902  C2'   C A  41     -18.485   4.103  40.120  1.00  0.00     0.199 C 
ATOM    903  C2    C A  41     -20.858   4.569  42.182  1.00  0.00     0.352 A 
ATOM    904  C6    C A  41     -19.857   2.502  42.868  1.00  0.00     0.102 A 
ATOM    905  N3    C A  41     -21.290   4.775  43.446  1.00  0.00    -0.177 NA
ATOM    906  O2    C A  41     -21.091   5.379  41.275  1.00  0.00    -0.244 OA
ATOM    907  C4    C A  41     -21.019   3.879  44.397  1.00  0.00     0.128 A 
ATOM    908  N4    C A  41     -21.466   4.126  45.627  1.00  0.00    -0.384 N 
ATOM    909  C5    C A  41     -20.279   2.692  44.126  1.00  0.00     0.067 A 
ATOM    910  H41   C A  41     -21.284   3.474  46.376  1.00  0.00     0.157 HD
ATOM    911  H42   C A  41     -21.992   4.970  45.809  1.00  0.00     0.157 HD
ATOM    912  O2'   C A  41     -18.504   4.300  38.719  1.00  0.00    -0.388 OA
ATOM    913 'HO2   C A  41     -17.628   4.089  38.397  1.00  0.00     0.210 HD
ATOM    914  O3'   C A  41     -16.103   3.583  39.861  1.00  0.00    -0.279 OA
ATOM    915  P     C A  42     -15.132   4.705  40.480  1.00  0.00     0.408 P 
ATOM    916  OP2   C A  42     -14.925   4.405  41.920  1.00  0.00    -0.624 OA
ATOM    917  O5'   C A  42     -15.977   6.051  40.369  1.00  0.00    -0.287 OA
ATOM    918  OP1   C A  42     -13.956   4.819  39.579  1.00  0.00    -0.624 OA
ATOM    919  C5'   C A  42     -16.336   6.591  39.098  1.00  0.00     0.216 C 
ATOM    920  C4'   C A  42     -16.989   7.944  39.270  1.00  0.00     0.180 C 
ATOM    921  O4'   C A  42     -18.309   7.761  39.849  1.00  0.00    -0.353 OA
ATOM    922  C3'   C A  42     -16.284   8.892  40.229  1.00  0.00     0.198 C 
ATOM    923  C1'   C A  42     -18.584   8.816  40.755  1.00  0.00     0.264 C 
ATOM    924  C2'   C A  42     -17.417   9.802  40.684  1.00  0.00     0.199 C 
BRANCH 923 925
ATOM    925  N1    C A  42     -18.791   8.237  42.092  1.00  0.00    -0.278 N 
ATOM    926  C6    C A  42     -18.178   7.069  42.454  1.00  0.00     0.102 A 
ATOM    927  C5    C A  42     -18.369   6.535  43.667  1.00  0.00     0.067 A 
ATOM    928  C4    C A  42     -19.231   7.234  44.562  1.00  0.00     0.128 A 
ATOM    929  N3    C A  42     -19.828   8.375  44.221  1.00  0.00    -0.177 NA
ATOM    930  N4    C A  42     -19.462   6.753  45.782  1.00  0.00    -0.384 N 
ATOM    931  C2    C A  42     -19.627   8.901  42.992  1.00  0.00     0.352 A 
ATOM    932  O2    C A  42     -20.170   9.959  42.642  1.00  0.00    -0.244 OA
ATOM    933  H42   C A  42     -20.077   7.257  46.406  1.00  0.00     0.157 HD
ATOM    934  H41   C A  42     -19.030   5.891  46.081  1.00  0.00     0.157 HD
ENDBRANCH 923 925
BRANCH 924 935
ATOM    935  O2'   C A  42     -17.711  10.782  39.705  1.00  0.00    -0.388 OA
ATOM    936 'HO2   C A  42     -16.930  10.865  39.159  1.00  0.00     0.210 HD
ENDBRANCH 924 935
BRANCH 922 937
ATOM    937  O3'   C A  42     -15.238   9.611  39.579  1.00  0.00    -0.279 OA
BRANCH 937 938
ATOM    938  P     G A  43     -13.773   9.665  40.241  1.00  0.00     0.408 P 
ATOM    939  OP2   G A  43     -13.433   8.310  40.745  1.00  0.00    -0.624 OA
ATOM    940  OP1   G A  43     -12.873  10.332  39.267  1.00  0.00    -0.624 OA
BRANCH 938 941
ATOM    941  O5'   G A  43     -13.950  10.633  41.495  1.00  0.00    -0.287 OA
BRANCH 941 942
ATOM    942  C5'   G A  43     -13.311  11.908  41.535  1.00  0.00     0.216 C 
BRANCH 942 943
ATOM    943  C4'   G A  43     -13.114  12.348  42.968  1.00  0.00     0.180 C 
ATOM    944  O4'   G A  43     -14.338  12.972  43.435  1.00  0.00    -0.353 OA
ATOM    945  C1'   G A  43     -14.561  12.633  44.792  1.00  0.00     0.262 C 
ATOM    946  C2'   G A  43     -13.369  11.807  45.274  1.00  0.00     0.199 C 
ATOM    947  C3'   G A  43     -12.846  11.228  43.964  1.00  0.00     0.198 C 
ATOM    948  O2'   G A  43     -12.422  12.679  45.863  1.00  0.00    -0.388 OA
ATOM    949  O3'   G A  43     -11.457  10.913  44.038  1.00  0.00    -0.279 OA
ATOM    950  P     G A  44     -10.892   9.592  43.313  1.00  0.00     0.408 P 
ATOM    951  OP2   G A  44     -11.842   8.475  43.551  1.00  0.00    -0.624 OA
ATOM    952  O5'   G A  44      -9.541   9.271  44.095  1.00  0.00    -0.287 OA
ATOM    953  OP1   G A  44     -10.536   9.968  41.921  1.00  0.00    -0.624 OA
ATOM    954  C5'   G A  44      -8.970  10.219  44.996  1.00  0.00     0.216 C 
ATOM    955  C4'   G A  44      -7.939   9.551  45.876  1.00  0.00     0.180 C 
ATOM    956  C3'   G A  44      -6.690   9.056  45.148  1.00  0.00     0.198 C 
ATOM    957  O4'   G A  44      -8.542   8.376  46.488  1.00  0.00    -0.353 OA
ATOM    958  C2'   G A  44      -6.941   7.560  44.982  1.00  0.00     0.199 C 
ATOM    959  C1'   G A  44      -7.730   7.249  46.249  1.00  0.00     0.262 C 
ATOM    960  N9    G A  44      -8.588   6.071  46.158  1.00  0.00    -0.293 N 
ATOM    961  C4    G A  44      -8.961   5.413  45.009  1.00  0.00     0.187 A 
ATOM    962  C8    G A  44      -9.180   5.397  47.197  1.00  0.00     0.214 A 
ATOM    963  N3    G A  44      -8.600   5.744  43.751  1.00  0.00    -0.044 NA
ATOM    964  C5    G A  44      -9.761   4.371  45.429  1.00  0.00     0.173 A 
ATOM    965  C2    G A  44      -9.115   4.920  42.858  1.00  0.00     0.703 A 
ATOM    966  N1    G A  44      -9.920   3.855  43.168  1.00  0.00    -0.153 N 
ATOM    967  N2    G A  44      -8.855   5.105  41.561  1.00  0.00    -0.233 N 
ATOM    968  C6    G A  44     -10.307   3.494  44.453  1.00  0.00     0.292 A 
ATOM    969  H1    G A  44     -10.261   3.286  42.409  1.00  0.00     0.187 HD
ATOM    970  O6    G A  44     -11.040   2.512  44.621  1.00  0.00    -0.265 OA
ATOM    971  H22   G A  44      -9.240   4.484  40.866  1.00  0.00     0.174 HD
ATOM    972  H21   G A  44      -8.266   5.877  41.284  1.00  0.00     0.174 HD
ATOM    973  N7    G A  44      -9.891   4.374  46.811  1.00  0.00    -0.234 NA
ATOM    974 'HO2   G A  43     -11.563  12.422  45.526  1.00  0.00     0.210 HD
BRANCH 945 975
ATOM    975  N9    G A  43     -15.837  11.928  44.885  1.00  0.00    -0.293 N 
ATOM    976  C4    G A  43     -16.919  12.297  45.646  1.00  0.00     0.187 A 
ATOM    977  N3    G A  43     -16.995  13.382  46.444  1.00  0.00    -0.044 NA
ATOM    978  C5    G A  43     -17.877  11.334  45.411  1.00  0.00     0.173 A 
ATOM    979  C2    G A  43     -18.166  13.470  47.048  1.00  0.00     0.703 A 
ATOM    980  N2    G A  43     -18.409  14.486  47.878  1.00  0.00    -0.233 N 
ATOM    981  N1    G A  43     -19.184  12.568  46.882  1.00  0.00    -0.153 N 
ATOM    982  H22   G A  43     -19.302  14.575  48.338  1.00  0.00     0.174 HD
ATOM    983  H21   G A  43     -17.684  15.174  48.030  1.00  0.00     0.174 HD
ATOM    984  C6    G A  43     -19.131  11.444  46.066  1.00  0.00     0.292 A 
ATOM    985  H1    G A  43     -20.042  12.725  47.390  1.00  0.00     0.187 HD
ATOM    986  O6    G A  43     -20.112  10.695  45.988  1.00  0.00    -0.265 OA
ATOM    987  N7    G A  43     -17.406  10.378  44.520  1.00  0.00    -0.234 NA
ATOM    988  C8    G A  43     -16.195  10.771  44.239  1.00  0.00     0.214 A 
ENDBRANCH 945 975
BRANCH 956 989
ATOM    989  O3'   G A  44      -5.509   9.319  45.902  1.00  0.00    -0.279 OA
BRANCH 989 990
ATOM    990  P     A A  45      -4.629  10.628  45.581  1.00  0.00     0.408 P 
ATOM    991  O5'   A A  45      -3.125  10.135  45.762  1.00  0.00    -0.287 OA
ATOM    992  C5'   A A  45      -2.031  11.043  45.627  1.00  0.00     0.216 C 
ATOM    993  C4'   A A  45      -0.843  10.341  45.008  1.00  0.00     0.180 C 
ATOM    994  O4'   A A  45       0.152  10.113  46.047  1.00  0.00    -0.353 OA
ATOM    995  C3'   A A  45      -1.132   8.964  44.417  1.00  0.00     0.198 C 
ATOM    996  C1'   A A  45       0.572   8.762  46.016  1.00  0.00     0.262 C 
ATOM    997  C2'   A A  45       0.179   8.223  44.645  1.00  0.00     0.199 C 
ATOM    998  N9    A A  45      -0.059   8.059  47.132  1.00  0.00    -0.294 N 
ATOM    999  O2'   A A  45       1.163   8.612  43.703  1.00  0.00    -0.388 OA
ATOM   1000 'HO2   A A  45       0.699   9.022  42.971  1.00  0.00     0.210 HD
ATOM   1001  C4    A A  45       0.293   6.828  47.633  1.00  0.00     0.167 A 
ATOM   1002  C8    A A  45      -1.119   8.484  47.894  1.00  0.00     0.214 A 
ATOM   1003  C5    A A  45      -0.583   6.581  48.673  1.00  0.00     0.149 A 
ATOM   1004  N3    A A  45       1.282   6.025  47.204  1.00  0.00    -0.222 NA
ATOM   1005  N7    A A  45      -1.471   7.635  48.829  1.00  0.00    -0.236 NA
ATOM   1006  C6    A A  45      -0.430   5.365  49.361  1.00  0.00     0.155 A 
ATOM   1007  N6    A A  45      -1.206   4.989  50.379  1.00  0.00    -0.382 N 
ATOM   1008  N1    A A  45       0.556   4.536  48.959  1.00  0.00    -0.222 NA
ATOM   1009  H62   A A  45      -1.054   4.103  50.841  1.00  0.00     0.157 HD
ATOM   1010  H61   A A  45      -1.950   5.596  50.690  1.00  0.00     0.157 HD
ATOM   1011  C2    A A  45       1.329   4.910  47.931  1.00  0.00     0.237 A 
ATOM   1012  O3'   A A  45      -1.481   9.052  43.039  1.00  0.00    -0.279 OA
ATOM   1013  OP1   A A  45      -4.912  11.634  46.636  1.00  0.00    -0.624 OA
ATOM   1014  OP2   A A  45      -4.835  10.984  44.155  1.00  0.00    -0.624 OA
BRANCH 1012 1015
ATOM   1015  P     C A  46      -2.559   8.031  42.422  1.00  0.00     0.408 P 
ATOM   1016  OP1   C A  46      -3.439   7.587  43.532  1.00  0.00    -0.624 OA
ATOM   1017  OP2   C A  46      -1.843   7.020  41.604  1.00  0.00    -0.624 OA
BRANCH 1015 1018
ATOM   1018  O5'   C A  46      -3.426   8.939  41.439  1.00  0.00    -0.287 OA
BRANCH 1018 1019
ATOM   1019  C5'   C A  46      -2.870  10.111  40.844  1.00  0.00     0.216 C 
BRANCH 1019 1020
ATOM   1020  C4'   C A  46      -3.060  10.075  39.346  1.00  0.00     0.180 C 
ATOM   1021  O4'   C A  46      -4.233   9.275  39.028  1.00  0.00    -0.353 OA
ATOM   1022  C1'   C A  46      -4.904   9.835  37.910  1.00  0.00     0.264 C 
ATOM   1023  C2'   C A  46      -4.048  10.996  37.404  1.00  0.00     0.199 C 
ATOM   1024  C3'   C A  46      -3.344  11.417  38.686  1.00  0.00     0.198 C 
BRANCH 1022 1025
ATOM   1025  N1    C A  46      -6.257  10.237  38.329  1.00  0.00    -0.278 N 
ATOM   1026  C6    C A  46      -6.526  10.548  39.634  1.00  0.00     0.102 A 
ATOM   1027  C5    C A  46      -7.757  10.908  40.020  1.00  0.00     0.067 A 
ATOM   1028  C4    C A  46      -8.769  10.958  39.018  1.00  0.00     0.128 A 
ATOM   1029  N3    C A  46      -8.516  10.662  37.742  1.00  0.00    -0.177 NA
ATOM   1030  N4    C A  46     -10.013  11.308  39.340  1.00  0.00    -0.384 N 
ATOM   1031  C2    C A  46      -7.270  10.297  37.368  1.00  0.00     0.352 A 
ATOM   1032  O2    C A  46      -7.002  10.013  36.192  1.00  0.00    -0.244 OA
ATOM   1033  H42   C A  46     -10.724  11.345  38.622  1.00  0.00     0.157 HD
ATOM   1034  H41   C A  46     -10.246  11.539  40.295  1.00  0.00     0.157 HD
ENDBRANCH 1022 1025
BRANCH 1023 1035
ATOM   1035  O2'   C A  46      -3.125  10.499  36.453  1.00  0.00    -0.388 OA
ATOM   1036 'HO2   C A  46      -2.724   9.721  36.841  1.00  0.00     0.210 HD
ENDBRANCH 1023 1035
BRANCH 1024 1037
ATOM   1037  O3'   C A  46      -2.148  12.151  38.441  1.00  0.00    -0.279 OA
BRANCH 1037 1038
ATOM   1038  P     G A  47      -2.047  13.688  38.901  1.00  0.00     0.408 P 
ATOM   1039  OP2   G A  47      -3.095  13.946  39.922  1.00  0.00    -0.624 OA
ATOM   1040  OP1   G A  47      -0.624  13.957  39.229  1.00  0.00    -0.624 OA
BRANCH 1038 1041
ATOM   1041  O5'   G A  47      -2.416  14.511  37.587  1.00  0.00    -0.287 OA
BRANCH 1041 1042
ATOM   1042  C5'   G A  47      -2.317  15.933  37.564  1.00  0.00     0.216 C 
BRANCH 1042 1043
ATOM   1043  C4'   G A  47      -3.436  16.524  36.736  1.00  0.00     0.180 C 
ATOM   1044  O4'   G A  47      -3.088  16.457  35.327  1.00  0.00    -0.353 OA
ATOM   1045  C1'   G A  47      -4.272  16.322  34.556  1.00  0.00     0.262 C 
ATOM   1046  C2'   G A  47      -5.452  16.286  35.529  1.00  0.00     0.199 C 
ATOM   1047  N9    G A  47      -4.162  15.118  33.738  1.00  0.00    -0.293 N 
ATOM   1048  O2'   G A  47      -5.946  17.604  35.690  1.00  0.00    -0.388 OA
ATOM   1049  C3'   G A  47      -4.768  15.795  36.798  1.00  0.00     0.198 C 
ATOM   1050 'HO2   G A  47      -6.032  17.751  36.632  1.00  0.00     0.210 HD
ATOM   1051  O3'   G A  47      -5.501  16.116  37.977  1.00  0.00    -0.279 OA
ATOM   1052  P     A A  48      -6.645  15.114  38.502  1.00  0.00     0.408 P 
ATOM   1053  OP1   A A  48      -7.235  15.722  39.723  1.00  0.00    -0.624 OA
ATOM   1054  O5'   A A  48      -7.748  15.150  37.351  1.00  0.00    -0.287 OA
ATOM   1055  OP2   A A  48      -6.080  13.743  38.566  1.00  0.00    -0.624 OA
ATOM   1056  C5'   A A  48      -8.444  16.355  37.043  1.00  0.00     0.216 C 
ATOM   1057  C4'   A A  48      -9.310  16.163  35.818  1.00  0.00     0.180 C 
ATOM   1058  O4'   A A  48      -8.487  15.783  34.685  1.00  0.00    -0.353 OA
ATOM   1059  C3'   A A  48     -10.327  15.037  35.888  1.00  0.00     0.198 C 
ATOM   1060  C1'   A A  48      -9.268  15.024  33.775  1.00  0.00     0.262 C 
ATOM   1061  N9    A A  48      -8.562  13.779  33.477  1.00  0.00    -0.294 N 
ATOM   1062  C2'   A A  48     -10.641  14.806  34.414  1.00  0.00     0.199 C 
ATOM   1063  C8    A A  48      -7.436  13.274  34.077  1.00  0.00     0.214 A 
ATOM   1064  C4    A A  48      -8.916  12.862  32.515  1.00  0.00     0.167 A 
ATOM   1065  N7    A A  48      -7.043  12.124  33.584  1.00  0.00    -0.236 NA
ATOM   1066  C5    A A  48      -7.976  11.852  32.592  1.00  0.00     0.149 A 
ATOM   1067  C6    A A  48      -8.119  10.776  31.697  1.00  0.00     0.155 A 
ATOM   1068  N6    A A  48      -7.290   9.734  31.650  1.00  0.00    -0.382 N 
ATOM   1069  N1    A A  48      -9.160  10.810  30.835  1.00  0.00    -0.222 NA
ATOM   1070  H61   A A  48      -6.505   9.689  32.284  1.00  0.00     0.157 HD
ATOM   1071  H62   A A  48      -7.445   8.989  30.986  1.00  0.00     0.157 HD
ATOM   1072  C2    A A  48      -9.992  11.860  30.878  1.00  0.00     0.237 A 
ATOM   1073  N3    A A  48      -9.960  12.929  31.672  1.00  0.00    -0.222 NA
ATOM   1074  O2'   A A  48     -11.529  15.792  33.920  1.00  0.00    -0.388 OA
ATOM   1075 'HO2   A A  48     -11.959  16.182  34.681  1.00  0.00     0.210 HD
ATOM   1076  O3'   A A  48     -11.479  15.404  36.643  1.00  0.00    -0.279 OA
ATOM   1077  P     G A  49     -12.425  14.260  37.265  1.00  0.00     0.408 P 
ATOM   1078  OP1   G A  49     -13.353  14.926  38.215  1.00  0.00    -0.624 OA
ATOM   1079  OP2   G A  49     -11.571  13.140  37.738  1.00  0.00    -0.624 OA
ATOM   1080  O5'   G A  49     -13.277  13.744  36.021  1.00  0.00    -0.287 OA
ATOM   1081  C5'   G A  49     -14.142  14.627  35.311  1.00  0.00     0.216 C 
ATOM   1082  C4'   G A  49     -14.869  13.882  34.215  1.00  0.00     0.180 C 
ATOM   1083  O4'   G A  49     -13.928  13.521  33.169  1.00  0.00    -0.353 OA
ATOM   1084  C3'   G A  49     -15.485  12.549  34.610  1.00  0.00     0.198 C 
ATOM   1085  C1'   G A  49     -14.328  12.296  32.575  1.00  0.00     0.262 C 
ATOM   1086  C2'   G A  49     -15.622  11.856  33.262  1.00  0.00     0.199 C 
ATOM   1087  N9    G A  49     -13.241  11.333  32.721  1.00  0.00    -0.293 N 
ATOM   1088  O2'   G A  49     -16.721  12.370  32.534  1.00  0.00    -0.388 OA
ATOM   1089 'HO2   G A  49     -17.288  12.809  33.168  1.00  0.00     0.210 HD
ATOM   1090  C8    G A  49     -12.185  11.394  33.597  1.00  0.00     0.214 A 
ATOM   1091  C4    G A  49     -13.080  10.174  32.001  1.00  0.00     0.187 A 
ATOM   1092  N7    G A  49     -11.373  10.378  33.496  1.00  0.00    -0.234 NA
ATOM   1093  C5    G A  49     -11.926   9.597  32.490  1.00  0.00     0.173 A 
ATOM   1094  C6    G A  49     -11.493   8.364  31.936  1.00  0.00     0.292 A 
ATOM   1095  O6    G A  49     -10.496   7.694  32.230  1.00  0.00    -0.265 OA
ATOM   1096  N1    G A  49     -12.354   7.921  30.940  1.00  0.00    -0.153 N 
ATOM   1097  H1    G A  49     -12.130   7.050  30.487  1.00  0.00     0.187 HD
ATOM   1098  C2    G A  49     -13.485   8.578  30.526  1.00  0.00     0.703 A 
ATOM   1099  N3    G A  49     -13.900   9.725  31.030  1.00  0.00    -0.044 NA
ATOM   1100  N2    G A  49     -14.184   7.990  29.553  1.00  0.00    -0.233 N 
ATOM   1101  H21   G A  49     -15.026   8.431  29.212  1.00  0.00     0.174 HD
ATOM   1102  H22   G A  49     -13.876   7.110  29.164  1.00  0.00     0.174 HD
ATOM   1103  O3'   G A  49     -16.736  12.711  35.271  1.00  0.00    -0.279 OA
ATOM   1104  P     C A  50     -17.271  11.560  36.259  1.00  0.00     0.408 P 
ATOM   1105  OP1   C A  50     -18.629  11.960  36.711  1.00  0.00    -0.624 OA
ATOM   1106  OP2   C A  50     -16.217  11.277  37.267  1.00  0.00    -0.624 OA
ATOM   1107  O5'   C A  50     -17.416  10.280  35.321  1.00  0.00    -0.287 OA
ATOM   1108  C5'   C A  50     -18.390  10.242  34.278  1.00  0.00     0.216 C 
ATOM   1109  C4'   C A  50     -18.184   9.020  33.413  1.00  0.00     0.180 C 
ATOM   1110  O4'   C A  50     -16.833   9.015  32.885  1.00  0.00    -0.353 OA
ATOM   1111  C3'   C A  50     -18.282   7.677  34.118  1.00  0.00     0.198 C 
ATOM   1112  C1'   C A  50     -16.420   7.676  32.665  1.00  0.00     0.264 C 
ATOM   1113  N1    C A  50     -15.142   7.453  33.361  1.00  0.00    -0.278 N 
ATOM   1114  C2'   C A  50     -17.545   6.759  33.151  1.00  0.00     0.199 C 
ATOM   1115  C6    C A  50     -14.672   8.354  34.277  1.00  0.00     0.102 A 
ATOM   1116  C2    C A  50     -14.413   6.297  33.073  1.00  0.00     0.352 A 
ATOM   1117  C5    C A  50     -13.509   8.152  34.910  1.00  0.00     0.067 A 
ATOM   1118  C4    C A  50     -12.789   6.963  34.595  1.00  0.00     0.128 A 
ATOM   1119  N4    C A  50     -11.626   6.703  35.191  1.00  0.00    -0.384 N 
ATOM   1120  N3    C A  50     -13.241   6.078  33.706  1.00  0.00    -0.177 NA
ATOM   1121  H42   C A  50     -11.124   5.859  34.956  1.00  0.00     0.157 HD
ATOM   1122  H41   C A  50     -11.247   7.347  35.871  1.00  0.00     0.157 HD
ATOM   1123  O2    C A  50     -14.860   5.497  32.240  1.00  0.00    -0.244 OA
ATOM   1124  O2'   C A  50     -18.360   6.420  32.046  1.00  0.00    -0.388 OA
ATOM   1125 'HO2   C A  50     -19.253   6.682  32.271  1.00  0.00     0.210 HD
ATOM   1126  O3'   C A  50     -19.634   7.278  34.326  1.00  0.00    -0.279 OA
ATOM   1127  P     C A  51     -19.980   6.191  35.461  1.00  0.00     0.408 P 
ATOM   1128  OP1   C A  51     -21.456   6.031  35.486  1.00  0.00    -0.624 OA
ATOM   1129  OP2   C A  51     -19.262   6.568  36.706  1.00  0.00    -0.624 OA
ATOM   1130  O5'   C A  51     -19.342   4.839  34.911  1.00  0.00    -0.287 OA
ATOM   1131  C5'   C A  51     -19.779   4.269  33.678  1.00  0.00     0.216 C 
ATOM   1132  C4'   C A  51     -19.059   2.966  33.417  1.00  0.00     0.180 C 
ATOM   1133  O4'   C A  51     -17.669   3.241  33.102  1.00  0.00    -0.353 OA
ATOM   1134  C3'   C A  51     -18.979   2.007  34.595  1.00  0.00     0.198 C 
ATOM   1135  C1'   C A  51     -16.858   2.173  33.565  1.00  0.00     0.264 C 
ATOM   1136  N1    C A  51     -15.836   2.721  34.473  1.00  0.00    -0.278 N 
ATOM   1137  C2'   C A  51     -17.777   1.144  34.228  1.00  0.00     0.199 C 
ATOM   1138  C6    C A  51     -16.031   3.915  35.109  1.00  0.00     0.102 A 
ATOM   1139  C2    C A  51     -14.658   1.999  34.674  1.00  0.00     0.352 A 
ATOM   1140  C5    C A  51     -15.100   4.421  35.929  1.00  0.00     0.067 A 
ATOM   1141  C4    C A  51     -13.906   3.663  36.111  1.00  0.00     0.128 A 
ATOM   1142  N4    C A  51     -12.940   4.114  36.910  1.00  0.00    -0.384 N 
ATOM   1143  N3    C A  51     -13.711   2.495  35.499  1.00  0.00    -0.177 NA
ATOM   1144  H41   C A  51     -13.044   4.994  37.394  1.00  0.00     0.157 HD
ATOM   1145  H42   C A  51     -12.098   3.567  37.025  1.00  0.00     0.157 HD
ATOM   1146  O2    C A  51     -14.509   0.917  34.089  1.00  0.00    -0.244 OA
ATOM   1147  O2'   C A  51     -18.125   0.166  33.267  1.00  0.00    -0.388 OA
ATOM   1148 'HO2   C A  51     -19.041   0.321  33.032  1.00  0.00     0.210 HD
ATOM   1149  O3'   C A  51     -20.174   1.243  34.736  1.00  0.00    -0.279 OA
ATOM   1150  P     C A  52     -20.523   0.558  36.150  1.00  0.00     0.408 P 
ATOM   1151  OP1   C A  52     -21.908   0.032  36.060  1.00  0.00    -0.624 OA
ATOM   1152  OP2   C A  52     -20.167   1.508  37.235  1.00  0.00    -0.624 OA
ATOM   1153  O5'   C A  52     -19.527  -0.683  36.236  1.00  0.00    -0.287 OA
ATOM   1154  C5'   C A  52     -19.527  -1.698  35.232  1.00  0.00     0.216 C 
ATOM   1155  C4'   C A  52     -18.447  -2.716  35.519  1.00  0.00     0.180 C 
ATOM   1156  O4'   C A  52     -17.156  -2.138  35.193  1.00  0.00    -0.353 OA
ATOM   1157  C3'   C A  52     -18.316  -3.139  36.974  1.00  0.00     0.182 C 
ATOM   1158  C1'   C A  52     -16.180  -2.603  36.108  1.00  0.00     0.264 C 
ATOM   1159  N1    C A  52     -15.588  -1.438  36.784  1.00  0.00    -0.278 N 
ATOM   1160  C2'   C A  52     -16.861  -3.589  37.059  1.00  0.00     0.198 C 
ATOM   1161  C6    C A  52     -16.363  -0.376  37.158  1.00  0.00     0.102 A 
ATOM   1162  C2    C A  52     -14.214  -1.433  37.038  1.00  0.00     0.352 A 
ATOM   1163  C5    C A  52     -15.828   0.688  37.771  1.00  0.00     0.067 A 
ATOM   1164  C4    C A  52     -14.424   0.668  38.014  1.00  0.00     0.128 A 
ATOM   1165  N4    C A  52     -13.832   1.697  38.618  1.00  0.00    -0.384 N 
ATOM   1166  N3    C A  52     -13.660  -0.365  37.655  1.00  0.00    -0.177 NA
ATOM   1167  H41   C A  52     -14.373   2.498  38.907  1.00  0.00     0.157 HD
ATOM   1168  H42   C A  52     -12.835   1.668  38.780  1.00  0.00     0.157 HD
ATOM   1169  O2    C A  52     -13.536  -2.410  36.693  1.00  0.00    -0.244 OA
ATOM   1170  O2'   C A  52     -16.700  -4.899  36.546  1.00  0.00    -0.388 OA
ATOM   1171 'HO2   C A  52     -17.525  -5.363  36.697  1.00  0.00     0.210 HD
ATOM   1172  O3'   C A  52     -19.232  -4.184  37.320  1.00  0.00    -0.390 OA
ATOM   1173 'HO3   C A  52     -20.099  -3.915  37.007  1.00  0.00     0.210 HD
ATOM   1174  C4    G A  47      -4.940  14.800  32.652  1.00  0.00     0.187 A 
ATOM   1175  C8    G A  47      -3.278  14.079  33.898  1.00  0.00     0.214 A 
ATOM   1176  N3    G A  47      -5.940  15.550  32.146  1.00  0.00    -0.044 NA
ATOM   1177  C5    G A  47      -4.478  13.575  32.217  1.00  0.00     0.173 A 
ATOM   1178  C2    G A  47      -6.508  14.977  31.102  1.00  0.00     0.703 A 
ATOM   1179  N2    G A  47      -7.520  15.586  30.482  1.00  0.00    -0.233 N 
ATOM   1180  N1    G A  47      -6.126  13.764  30.590  1.00  0.00    -0.153 N 
ATOM   1181  H21   G A  47      -7.841  16.482  30.817  1.00  0.00     0.174 HD
ATOM   1182  H22   G A  47      -7.965  15.151  29.684  1.00  0.00     0.174 HD
ATOM   1183  C6    G A  47      -5.099  12.972  31.090  1.00  0.00     0.292 A 
ATOM   1184  H1    G A  47      -6.626  13.414  29.787  1.00  0.00     0.187 HD
ATOM   1185  O6    G A  47      -4.836  11.891  30.551  1.00  0.00    -0.265 OA
ATOM   1186  N7    G A  47      -3.428  13.134  33.011  1.00  0.00    -0.234 NA
ENDBRANCH 1042 1043
ENDBRANCH 1041 1042
ENDBRANCH 1038 1041
ENDBRANCH 1037 1038
ENDBRANCH 1024 1037
ENDBRANCH 1019 1020
ENDBRANCH 1018 1019
ENDBRANCH 1015 1018
ENDBRANCH 1012 1015
ENDBRANCH 989 990
ENDBRANCH 956 989
BRANCH 958 1187
ATOM   1187  O2'   G A  44      -5.727   6.831  45.013  1.00  0.00    -0.388 OA
ATOM   1188 'HO2   G A  44      -5.929   5.982  45.408  1.00  0.00     0.210 HD
ENDBRANCH 958 1187
ENDBRANCH 942 943
ENDBRANCH 941 942
ENDBRANCH 938 941
ENDBRANCH 937 938
ENDBRANCH 922 937
ENDBRANCH 840 846
BRANCH 843 1189
ATOM   1189  N9    A A  38     -24.208  -5.630  42.071  1.00  0.00    -0.294 N 
ATOM   1190  C4    A A  38     -23.232  -5.789  41.117  1.00  0.00     0.167 A 
ATOM   1191  N3    A A  38     -22.464  -6.873  40.911  1.00  0.00    -0.222 NA
ATOM   1192  C5    A A  38     -23.199  -4.603  40.409  1.00  0.00     0.149 A 
ATOM   1193  C2    A A  38     -21.625  -6.668  39.898  1.00  0.00     0.237 A 
ATOM   1194  N1    A A  38     -21.479  -5.585  39.127  1.00  0.00    -0.222 NA
ATOM   1195  C6    A A  38     -22.266  -4.513  39.360  1.00  0.00     0.155 A 
ATOM   1196  N6    A A  38     -22.117  -3.434  38.590  1.00  0.00    -0.382 N 
ATOM   1197  H62   A A  38     -21.424  -3.440  37.856  1.00  0.00     0.157 HD
ATOM   1198  H61   A A  38     -22.693  -2.621  38.746  1.00  0.00     0.157 HD
ATOM   1199  N7    A A  38     -24.138  -3.708  40.906  1.00  0.00    -0.236 NA
ATOM   1200  C8    A A  38     -24.707  -4.364  41.888  1.00  0.00     0.214 A 
ENDBRANCH 843 1189
ENDBRANCH 838 839
ENDBRANCH 837 838
ENDBRANCH 834 837
ENDBRANCH 833 834
ENDBRANCH 818 833
ENDBRANCH 813 814
ENDBRANCH 796 813
ENDBRANCH 765 766
ENDBRANCH 764 765
ENDBRANCH 761 764
ENDBRANCH 760 761
ENDBRANCH 696 760
BRANCH 755 1201
ATOM   1201  N9    A A  29     -22.600  16.123  16.411  1.00  0.00    -0.294 N 
ATOM   1202  C8    A A  29     -21.708  16.622  17.328  1.00  0.00     0.214 A 
ATOM   1203  N7    A A  29     -20.809  17.422  16.810  1.00  0.00    -0.236 NA
ATOM   1204  C5    A A  29     -21.129  17.450  15.459  1.00  0.00     0.149 A 
ATOM   1205  C4    A A  29     -22.228  16.654  15.199  1.00  0.00     0.167 A 
ATOM   1206  C6    A A  29     -20.551  18.116  14.363  1.00  0.00     0.155 A 
ATOM   1207  N3    A A  29     -22.810  16.446  14.005  1.00  0.00    -0.222 NA
ATOM   1208  C2    A A  29     -22.176  17.123  13.051  1.00  0.00     0.237 A 
ATOM   1209  N1    A A  29     -21.108  17.927  13.147  1.00  0.00    -0.222 NA
ATOM   1210  N6    A A  29     -19.492  18.919  14.459  1.00  0.00    -0.382 N 
ATOM   1211  H61   A A  29     -19.061  19.075  15.359  1.00  0.00     0.157 HD
ATOM   1212  H62   A A  29     -19.114  19.365  13.634  1.00  0.00     0.157 HD
ENDBRANCH 755 1201
ENDBRANCH 627 628
ENDBRANCH 626 627
ENDBRANCH 623 626
ENDBRANCH 622 623
ENDBRANCH 592 622
BRANCH 594 1213
ATOM   1213  O2'   G A  28     -22.726  11.670  12.257  1.00  0.00    -0.388 OA
ATOM   1214 'HO2   G A  28     -22.281  11.310  11.489  1.00  0.00     0.210 HD
ENDBRANCH 594 1213
BRANCH 604 1215
ATOM   1215  N2    G A  28     -21.888   7.171   9.129  1.00  0.00    -0.233 N 
ATOM   1216  H21   G A  28     -21.468   8.068   8.933  1.00  0.00     0.174 HD
ATOM   1217  H22   G A  28     -21.905   6.452   8.419  1.00  0.00     0.174 HD
ENDBRANCH 604 1215
ENDBRANCH 552 553
ENDBRANCH 549 552
ENDBRANCH 548 549
ENDBRANCH 544 548
BRANCH 545 1218
ATOM   1218  O2'   C A  25     -24.375  -2.118  19.605  1.00  0.00    -0.388 OA
ATOM   1219 'HO2   C A  25     -24.488  -3.068  19.567  1.00  0.00     0.210 HD
ENDBRANCH 545 1218
BRANCH 546 1220
ATOM   1220  N1    C A  25     -27.384  -2.416  17.538  1.00  0.00    -0.278 N 
ATOM   1221  C2    C A  25     -28.311  -3.413  17.230  1.00  0.00     0.352 A 
ATOM   1222  N3    C A  25     -29.057  -3.299  16.109  1.00  0.00    -0.177 NA
ATOM   1223  O2    C A  25     -28.426  -4.382  17.992  1.00  0.00    -0.244 OA
ATOM   1224  C4    C A  25     -28.907  -2.239  15.314  1.00  0.00     0.128 A 
ATOM   1225  C5    C A  25     -27.974  -1.203  15.606  1.00  0.00     0.067 A 
ATOM   1226  N4    C A  25     -29.665  -2.170  14.222  1.00  0.00    -0.384 N 
ATOM   1227  C6    C A  25     -27.238  -1.333  16.717  1.00  0.00     0.102 A 
ATOM   1228  H42   C A  25     -30.324  -2.909  14.020  1.00  0.00     0.157 HD
ATOM   1229  H41   C A  25     -29.582  -1.383  13.594  1.00  0.00     0.157 HD
ENDBRANCH 546 1220
ENDBRANCH 513 543
ENDBRANCH 367 368
ENDBRANCH 364 367
ENDBRANCH 363 364
ENDBRANCH 360 363
ENDBRANCH 346 347
ENDBRANCH 345 346
ENDBRANCH 342 345
ENDBRANCH 341 342
ENDBRANCH 317 341
ENDBRANCH 251 252
ENDBRANCH 250 251
ENDBRANCH 247 250
ENDBRANCH 246 247
ENDBRANCH 223 246
ENDBRANCH 206 207
ENDBRANCH 205 206
ENDBRANCH 202 205
ENDBRANCH 201 202
ENDBRANCH 179 201
BRANCH 197 1230
ATOM   1230  N9    G A   9     -29.968   6.211  28.920  1.00  0.00    -0.293 N 
ATOM   1231  C4    G A   9     -29.345   5.301  28.100  1.00  0.00     0.187 A 
ATOM   1232  N3    G A   9     -28.152   5.469  27.492  1.00  0.00    -0.044 NA
ATOM   1233  C5    G A   9     -30.193   4.216  28.045  1.00  0.00     0.173 A 
ATOM   1234  C2    G A   9     -27.818   4.420  26.764  1.00  0.00     0.703 A 
ATOM   1235  N1    G A   9     -28.589   3.292  26.643  1.00  0.00    -0.153 N 
ATOM   1236  C6    G A   9     -29.818   3.094  27.261  1.00  0.00     0.292 A 
ATOM   1237  H1    G A   9     -28.239   2.547  26.061  1.00  0.00     0.187 HD
ATOM   1238  O6    G A   9     -30.430   2.033  27.085  1.00  0.00    -0.265 OA
ATOM   1239  N7    G A   9     -31.327   4.437  28.816  1.00  0.00    -0.234 NA
ATOM   1240  C8    G A   9     -31.148   5.631  29.313  1.00  0.00     0.214 A 
BRANCH 1234 1241
ATOM   1241  N2    G A   9     -26.664   4.420  26.093  1.00  0.00    -0.233 N 
ATOM   1242  H21   G A   9     -25.794   4.447  26.603  1.00  0.00     0.174 HD
ATOM   1243  H22   G A   9     -26.664   4.398  25.082  1.00  0.00     0.174 HD
ENDBRANCH 1234 1241
ENDBRANCH 197 1230
ENDBRANCH 165 166
ENDBRANCH 162 165
ENDBRANCH 137 162
ENDBRANCH 113 117
BRANCH 114 1244
ATOM   1244  O2'   G A   6     -28.959  -2.350  33.444  1.00  0.00    -0.388 OA
ATOM   1245 'HO2   G A   6     -28.507  -1.636  33.894  1.00  0.00     0.210 HD
ENDBRANCH 114 1244
BRANCH 115 1246
ATOM   1246  N9    G A   6     -27.908  -3.956  36.536  1.00  0.00    -0.293 N 
ATOM   1247  C8    G A   6     -28.415  -4.621  37.626  1.00  0.00     0.214 A 
ATOM   1248  N7    G A   6     -27.573  -5.470  38.149  1.00  0.00    -0.234 NA
ATOM   1249  C5    G A   6     -26.441  -5.363  37.352  1.00  0.00     0.173 A 
ATOM   1250  C4    G A   6     -26.633  -4.434  36.352  1.00  0.00     0.187 A 
ATOM   1251  C6    G A   6     -25.195  -6.039  37.427  1.00  0.00     0.292 A 
ATOM   1252  N3    G A   6     -25.775  -4.051  35.382  1.00  0.00    -0.044 NA
ATOM   1253  C2    G A   6     -24.621  -4.689  35.464  1.00  0.00     0.703 A 
ATOM   1254  N2    G A   6     -23.655  -4.433  34.579  1.00  0.00    -0.233 N 
ATOM   1255  N1    G A   6     -24.329  -5.628  36.421  1.00  0.00    -0.153 N 
ATOM   1256  H22   G A   6     -22.770  -4.918  34.636  1.00  0.00     0.174 HD
ATOM   1257  H21   G A   6     -23.814  -3.751  33.852  1.00  0.00     0.174 HD
ATOM   1258  H1    G A   6     -23.416  -6.054  36.393  1.00  0.00     0.187 HD
ATOM   1259  O6    G A   6     -24.830  -6.897  38.238  1.00  0.00    -0.265 OA
ENDBRANCH 115 1246
ENDBRANCH 111 112
ENDBRANCH 110 111
ENDBRANCH 107 110
ENDBRANCH 106 107
ENDBRANCH 102 106
BRANCH 103 1260
ATOM   1260  O2'   C A   5     -32.507   0.761  40.180  1.00  0.00    -0.388 OA
ATOM   1261 'HO2   C A   5     -32.285   0.849  39.252  1.00  0.00     0.210 HD
ENDBRANCH 103 1260
BRANCH 104 1262
ATOM   1262  N1    C A   5     -35.968   0.936  41.197  1.00  0.00    -0.278 N 
ATOM   1263  C2    C A   5     -35.767   1.034  42.575  1.00  0.00     0.352 A 
ATOM   1264  O2    C A   5     -34.657   1.386  42.998  1.00  0.00    -0.244 OA
ATOM   1265  N3    C A   5     -36.784   0.742  43.416  1.00  0.00    -0.177 NA
ATOM   1266  C4    C A   5     -37.966   0.370  42.926  1.00  0.00     0.128 A 
ATOM   1267  N4    C A   5     -38.938   0.095  43.794  1.00  0.00    -0.384 N 
ATOM   1268  C5    C A   5     -38.203   0.263  41.524  1.00  0.00     0.067 A 
ATOM   1269  H42   C A   5     -38.760   0.168  44.787  1.00  0.00     0.157 HD
ATOM   1270  H41   C A   5     -39.849  -0.191  43.469  1.00  0.00     0.157 HD
ATOM   1271  C6    C A   5     -37.184   0.551  40.704  1.00  0.00     0.102 A 
ENDBRANCH 104 1262
ENDBRANCH 100 101
ENDBRANCH  99 100
ENDBRANCH  96  99
ENDBRANCH  95  96
ENDBRANCH  67  95
ENDBRANCH  24  27
ENDBRANCH  23  24
ENDBRANCH  22  23
BRANCH  21 1272
ATOM   1272  O2'   G A   1     -41.939   6.733  48.539  1.00  0.00    -0.388 OA
ATOM   1273 'HO2   G A   1     -42.436   7.114  49.263  1.00  0.00     0.210 HD
ENDBRANCH  21 1272
TORSDOF 402
ENDMDL
MODEL 9
REMARK VINA RESULT:      -0.6      5.970     23.971
REMARK WARNING: 32 MAX_TORS EXCEEDED!!!
REMARK  101 active torsions:
REMARK  status: ('A' for Active; 'I' for Inactive)
REMARK       I    between atoms: O5'_2  and  C5'_3 
REMARK       I    between atoms: C5'_3  and  C4'_4 
REMARK       I    between atoms: C1'_6  and  N9_7 
REMARK       I    between atoms: C2_10  and  N2_11 
REMARK    1  A    between atoms: C2'_21  and  O2'_22 
REMARK    2  A    between atoms: C3'_24  and  O3'_25 
REMARK    3  A    between atoms: O3'_25  and  P_26 
REMARK    4  A    between atoms: P_26  and  O5'_29 
REMARK       I    between atoms: O5'_29  and  C5'_30 
REMARK       I    between atoms: C5'_30  and  C4'_31 
REMARK       I    between atoms: C1'_33  and  N9_34 
REMARK       I    between atoms: C2_37  and  N2_38 
REMARK       I    between atoms: C2'_48  and  O2'_49 
REMARK       I    between atoms: C3'_51  and  O3'_52 
REMARK       I    between atoms: O3'_52  and  P_53 
REMARK       I    between atoms: P_53  and  O5'_56 
REMARK       I    between atoms: O5'_56  and  C5'_57 
REMARK       I    between atoms: C5'_57  and  C4'_58 
REMARK       I    between atoms: C1'_60  and  N1_61 
REMARK       I    between atoms: C4_66  and  N4_67 
REMARK       I    between atoms: C2'_71  and  O2'_72 
REMARK       I    between atoms: C3'_74  and  O3'_75 
REMARK       I    between atoms: O3'_75  and  P_76 
REMARK       I    between atoms: P_76  and  O5'_79 
REMARK       I    between atoms: O5'_79  and  C5'_80 
REMARK       I    between atoms: C5'_80  and  C4'_81 
REMARK       I    between atoms: C1'_83  and  N1_84 
REMARK       I    between atoms: C2'_93  and  O2'_94 
REMARK    5  A    between atoms: C3'_96  and  O3'_97 
REMARK    6  A    between atoms: O3'_97  and  P_98 
REMARK    7  A    between atoms: P_98  and  O5'_101 
REMARK    8  A    between atoms: O5'_101  and  C5'_102 
REMARK    9  A    between atoms: C5'_102  and  C4'_103 
REMARK   10  A    between atoms: C1'_105  and  N1_106 
REMARK       I    between atoms: C4_111  and  N4_112 
REMARK   11  A    between atoms: C2'_116  and  O2'_117 
REMARK   12  A    between atoms: C3'_119  and  O3'_120 
REMARK   13  A    between atoms: O3'_120  and  P_121 
REMARK   14  A    between atoms: P_121  and  O5'_124 
REMARK   15  A    between atoms: O5'_124  and  C5'_125 
REMARK   16  A    between atoms: C5'_125  and  C4'_126 
REMARK   17  A    between atoms: C1'_128  and  N9_129 
REMARK       I    between atoms: C2_132  and  N2_133 
REMARK   18  A    between atoms: C2'_143  and  O2'_144 
REMARK   19  A    between atoms: C3'_146  and  O3'_147 
REMARK       I    between atoms: O3'_147  and  P_148 
REMARK       I    between atoms: P_148  and  O5'_151 
REMARK       I    between atoms: O5'_151  and  C5'_152 
REMARK       I    between atoms: C5'_152  and  C4'_153 
REMARK       I    between atoms: C1'_155  and  N1_156 
REMARK       I    between atoms: C2'_165  and  O2'_166 
REMARK       I    between atoms: C3'_168  and  O3'_169 
REMARK       I    between atoms: O3'_169  and  P_170 
REMARK       I    between atoms: P_170  and  O5'_173 
REMARK       I    between atoms: O5'_173  and  C5'_174 
REMARK       I    between atoms: C5'_174  and  C4'_175 
REMARK       I    between atoms: C1'_177  and  N1_178 
REMARK       I    between atoms: C2'_187  and  O2'_188 
REMARK       I    between atoms: C3'_190  and  O3'_191 
REMARK   20  A    between atoms: O3'_191  and  P_192 
REMARK   21  A    between atoms: P_192  and  O5'_195 
REMARK   22  A    between atoms: O5'_195  and  C5'_196 
REMARK       I    between atoms: C5'_196  and  C4'_197 
REMARK   23  A    between atoms: C1'_199  and  N9_200 
REMARK   24  A    between atoms: C2_203  and  N2_204 
REMARK       I    between atoms: C2'_214  and  O2'_215 
REMARK       I    between atoms: C3'_217  and  O3'_218 
REMARK       I    between atoms: O3'_218  and  P_219 
REMARK       I    between atoms: P_219  and  O5'_222 
REMARK       I    between atoms: O5'_222  and  C5'_223 
REMARK       I    between atoms: C5'_223  and  C4'_224 
REMARK       I    between atoms: C1'_226  and  N9_227 
REMARK       I    between atoms: C2_230  and  N2_231 
REMARK   25  A    between atoms: C2'_241  and  O2'_242 
REMARK   26  A    between atoms: C3'_244  and  O3'_245 
REMARK   27  A    between atoms: O3'_245  and  P_246 
REMARK   28  A    between atoms: P_246  and  O5'_249 
REMARK   29  A    between atoms: O5'_249  and  C5'_250 
REMARK   30  A    between atoms: C5'_250  and  C4'_251 
REMARK       I    between atoms: C1'_253  and  N1_254 
REMARK       I    between atoms: C2'_263  and  O2'_264 
REMARK       I    between atoms: C3'_266  and  O3'_267 
REMARK       I    between atoms: O3'_267  and  P_268 
REMARK       I    between atoms: P_268  and  O5'_271 
REMARK       I    between atoms: O5'_271  and  C5'_272 
REMARK       I    between atoms: C5'_272  and  C4'_273 
REMARK       I    between atoms: C1'_275  and  N1_276 
REMARK       I    between atoms: C4_281  and  N4_282 
REMARK   31  A    between atoms: C2'_286  and  O2'_287 
REMARK   32  A    between atoms: C3'_289  and  O3'_290 
REMARK   33  A    between atoms: O3'_290  and  P_291 
REMARK   34  A    between atoms: P_291  and  O5'_294 
REMARK   35  A    between atoms: O5'_294  and  C5'_295 
REMARK   36  A    between atoms: C5'_295  and  C4'_296 
REMARK   37  A    between atoms: C1'_298  and  N1_299 
REMARK       I    between atoms: C2'_308  and  O2'_309 
REMARK       I    between atoms: C3'_311  and  O3'_312 
REMARK       I    between atoms: O3'_312  and  P_313 
REMARK       I    between atoms: P_313  and  O5'_316 
REMARK       I    between atoms: O5'_316  and  C5'_317 
REMARK       I    between atoms: C5'_317  and  C4'_318 
REMARK       I    between atoms: C1'_320  and  N1_321 
REMARK       I    between atoms: C4_326  and  N4_327 
REMARK       I    between atoms: C2'_331  and  O2'_332 
REMARK       I    between atoms: C3'_334  and  O3'_335 
REMARK       I    between atoms: O3'_335  and  P_336 
REMARK       I    between atoms: P_336  and  O5'_339 
REMARK       I    between atoms: O5'_339  and  C5'_340 
REMARK       I    between atoms: C5'_340  and  C4'_341 
REMARK       I    between atoms: C1'_343  and  N9_344 
REMARK       I    between atoms: C2_347  and  N2_348 
REMARK       I    between atoms: C2'_358  and  O2'_359 
REMARK       I    between atoms: C3'_361  and  O3'_362 
REMARK       I    between atoms: O3'_362  and  P_363 
REMARK       I    between atoms: P_363  and  O5'_366 
REMARK       I    between atoms: O5'_366  and  C5'_367 
REMARK       I    between atoms: C5'_367  and  C4'_368 
REMARK       I    between atoms: C1'_370  and  N1_371 
REMARK       I    between atoms: C4_376  and  N4_377 
REMARK   38  A    between atoms: C2'_381  and  O2'_382 
REMARK   39  A    between atoms: C3'_384  and  O3'_385 
REMARK   40  A    between atoms: O3'_385  and  P_386 
REMARK   41  A    between atoms: P_386  and  O5'_389 
REMARK   42  A    between atoms: O5'_389  and  C5'_390 
REMARK   43  A    between atoms: C5'_390  and  C4'_391 
REMARK       I    between atoms: C1'_393  and  N1_394 
REMARK       I    between atoms: C2'_403  and  O2'_404 
REMARK   44  A    between atoms: C3'_406  and  O3'_407 
REMARK   45  A    between atoms: O3'_407  and  P_408 
REMARK   46  A    between atoms: P_408  and  O5'_411 
REMARK   47  A    between atoms: O5'_411  and  C5'_412 
REMARK       I    between atoms: C5'_412  and  C4'_413 
REMARK       I    between atoms: C1'_415  and  N1_416 
REMARK       I    between atoms: C2'_425  and  O2'_426 
REMARK       I    between atoms: C3'_428  and  O3'_429 
REMARK       I    between atoms: O3'_429  and  P_430 
REMARK       I    between atoms: P_430  and  O5'_433 
REMARK       I    between atoms: O5'_433  and  C5'_434 
REMARK       I    between atoms: C5'_434  and  C4'_435 
REMARK       I    between atoms: C1'_437  and  N1_438 
REMARK       I    between atoms: C2'_447  and  O2'_448 
REMARK       I    between atoms: C3'_450  and  O3'_451 
REMARK       I    between atoms: O3'_451  and  P_452 
REMARK       I    between atoms: P_452  and  O5'_455 
REMARK       I    between atoms: O5'_455  and  C5'_456 
REMARK       I    between atoms: C5'_456  and  C4'_457 
REMARK       I    between atoms: C1'_459  and  N9_460 
REMARK       I    between atoms: C2_463  and  N2_464 
REMARK       I    between atoms: C2'_474  and  O2'_475 
REMARK       I    between atoms: C3'_477  and  O3'_478 
REMARK       I    between atoms: O3'_478  and  P_479 
REMARK       I    between atoms: P_479  and  O5'_482 
REMARK       I    between atoms: O5'_482  and  C5'_483 
REMARK       I    between atoms: C5'_483  and  C4'_484 
REMARK       I    between atoms: C1'_486  and  N9_487 
REMARK       I    between atoms: C2_490  and  N2_491 
REMARK       I    between atoms: C2'_501  and  O2'_502 
REMARK       I    between atoms: C3'_504  and  O3'_505 
REMARK       I    between atoms: O3'_505  and  P_506 
REMARK       I    between atoms: P_506  and  O5'_509 
REMARK       I    between atoms: O5'_509  and  C5'_510 
REMARK       I    between atoms: C5'_510  and  C4'_511 
REMARK       I    between atoms: C1'_513  and  N9_514 
REMARK       I    between atoms: C2_517  and  N2_518 
REMARK       I    between atoms: C2'_528  and  O2'_529 
REMARK       I    between atoms: C3'_531  and  O3'_532 
REMARK       I    between atoms: O3'_532  and  P_533 
REMARK       I    between atoms: P_533  and  O5'_536 
REMARK       I    between atoms: O5'_536  and  C5'_537 
REMARK       I    between atoms: C5'_537  and  C4'_538 
REMARK       I    between atoms: C1'_540  and  N1_541 
REMARK       I    between atoms: C2'_550  and  O2'_551 
REMARK       I    between atoms: C3'_553  and  O3'_554 
REMARK       I    between atoms: O3'_554  and  P_555 
REMARK       I    between atoms: P_555  and  O5'_558 
REMARK       I    between atoms: O5'_558  and  C5'_559 
REMARK       I    between atoms: C5'_559  and  C4'_560 
REMARK       I    between atoms: C1'_562  and  N9_563 
REMARK       I    between atoms: C2_566  and  N2_567 
REMARK       I    between atoms: C2'_577  and  O2'_578 
REMARK       I    between atoms: C3'_580  and  O3'_581 
REMARK       I    between atoms: O3'_581  and  P_582 
REMARK       I    between atoms: P_582  and  O5'_585 
REMARK       I    between atoms: O5'_585  and  C5'_586 
REMARK   48  A    between atoms: C5'_586  and  C4'_587 
REMARK   49  A    between atoms: C1'_589  and  N1_590 
REMARK       I    between atoms: C4_595  and  N4_596 
REMARK   50  A    between atoms: C2'_600  and  O2'_601 
REMARK   51  A    between atoms: C3'_603  and  O3'_604 
REMARK   52  A    between atoms: O3'_604  and  P_605 
REMARK   53  A    between atoms: P_605  and  O5'_608 
REMARK   54  A    between atoms: O5'_608  and  C5'_609 
REMARK       I    between atoms: C5'_609  and  C4'_610 
REMARK       I    between atoms: C1'_612  and  N9_613 
REMARK       I    between atoms: C2_616  and  N2_617 
REMARK       I    between atoms: C2'_627  and  O2'_628 
REMARK       I    between atoms: C3'_630  and  O3'_631 
REMARK       I    between atoms: O3'_631  and  P_632 
REMARK       I    between atoms: P_632  and  O5'_635 
REMARK       I    between atoms: O5'_635  and  C5'_636 
REMARK       I    between atoms: C5'_636  and  C4'_637 
REMARK       I    between atoms: C1'_639  and  N9_640 
REMARK       I    between atoms: C6_645  and  N6_646 
REMARK       I    between atoms: C2'_652  and  O2'_653 
REMARK       I    between atoms: C3'_655  and  O3'_656 
REMARK       I    between atoms: O3'_656  and  P_657 
REMARK       I    between atoms: P_657  and  O5'_660 
REMARK       I    between atoms: O5'_660  and  C5'_661 
REMARK       I    between atoms: C5'_661  and  C4'_662 
REMARK       I    between atoms: C1'_664  and  N9_665 
REMARK   55  A    between atoms: C2_668  and  N2_669 
REMARK   56  A    between atoms: C2'_679  and  O2'_680 
REMARK   57  A    between atoms: C3'_682  and  O3'_683 
REMARK   58  A    between atoms: O3'_683  and  P_684 
REMARK   59  A    between atoms: P_684  and  O5'_687 
REMARK   60  A    between atoms: O5'_687  and  C5'_688 
REMARK   61  A    between atoms: C5'_688  and  C4'_689 
REMARK   62  A    between atoms: C1'_691  and  N9_692 
REMARK       I    between atoms: C6_697  and  N6_698 
REMARK       I    between atoms: C2'_704  and  O2'_705 
REMARK       I    between atoms: C3'_707  and  O3'_708 
REMARK       I    between atoms: O3'_708  and  P_709 
REMARK       I    between atoms: P_709  and  O5'_712 
REMARK       I    between atoms: O5'_712  and  C5'_713 
REMARK       I    between atoms: C5'_713  and  C4'_714 
REMARK       I    between atoms: C1'_716  and  N9_717 
REMARK       I    between atoms: C2_720  and  N2_721 
REMARK       I    between atoms: C2'_731  and  O2'_732 
REMARK       I    between atoms: C3'_734  and  O3'_735 
REMARK       I    between atoms: O3'_735  and  P_736 
REMARK       I    between atoms: P_736  and  O5'_739 
REMARK       I    between atoms: O5'_739  and  C5'_740 
REMARK       I    between atoms: C5'_740  and  C4'_741 
REMARK       I    between atoms: C1'_743  and  N9_744 
REMARK       I    between atoms: C2_747  and  N2_748 
REMARK       I    between atoms: C2'_758  and  O2'_759 
REMARK       I    between atoms: C3'_761  and  O3'_762 
REMARK       I    between atoms: O3'_762  and  P_763 
REMARK       I    between atoms: P_763  and  O5'_766 
REMARK       I    between atoms: O5'_766  and  C5'_767 
REMARK       I    between atoms: C5'_767  and  C4'_768 
REMARK       I    between atoms: C1'_770  and  N9_771 
REMARK       I    between atoms: C2_774  and  N2_775 
REMARK       I    between atoms: C2'_785  and  O2'_786 
REMARK       I    between atoms: C3'_788  and  O3'_789 
REMARK       I    between atoms: O3'_789  and  P_790 
REMARK       I    between atoms: P_790  and  O5'_793 
REMARK       I    between atoms: O5'_793  and  C5'_794 
REMARK       I    between atoms: C5'_794  and  C4'_795 
REMARK       I    between atoms: C1'_797  and  N1_798 
REMARK       I    between atoms: C2'_807  and  O2'_808 
REMARK       I    between atoms: C3'_810  and  O3'_811 
REMARK       I    between atoms: O3'_811  and  P_812 
REMARK       I    between atoms: P_812  and  O5'_815 
REMARK       I    between atoms: O5'_815  and  C5'_816 
REMARK       I    between atoms: C5'_816  and  C4'_817 
REMARK       I    between atoms: C1'_819  and  N1_820 
REMARK   63  A    between atoms: C2'_829  and  O2'_830 
REMARK   64  A    between atoms: C3'_832  and  O3'_833 
REMARK   65  A    between atoms: O3'_833  and  P_834 
REMARK   66  A    between atoms: P_834  and  O5'_837 
REMARK   67  A    between atoms: O5'_837  and  C5'_838 
REMARK   68  A    between atoms: C5'_838  and  C4'_839 
REMARK       I    between atoms: C1'_841  and  N1_842 
REMARK       I    between atoms: C4_847  and  N4_848 
REMARK       I    between atoms: C2'_852  and  O2'_853 
REMARK       I    between atoms: C3'_855  and  O3'_856 
REMARK       I    between atoms: O3'_856  and  P_857 
REMARK       I    between atoms: P_857  and  O5'_860 
REMARK       I    between atoms: O5'_860  and  C5'_861 
REMARK       I    between atoms: C5'_861  and  C4'_862 
REMARK       I    between atoms: C1'_864  and  N9_865 
REMARK       I    between atoms: C6_870  and  N6_871 
REMARK       I    between atoms: C2'_877  and  O2'_878 
REMARK       I    between atoms: C3'_880  and  O3'_881 
REMARK       I    between atoms: O3'_881  and  P_882 
REMARK       I    between atoms: P_882  and  O5'_885 
REMARK   69  A    between atoms: O5'_885  and  C5'_886 
REMARK   70  A    between atoms: C5'_886  and  C4'_887 
REMARK   71  A    between atoms: C1'_889  and  N9_890 
REMARK       I    between atoms: C6_895  and  N6_896 
REMARK   72  A    between atoms: C2'_902  and  O2'_903 
REMARK   73  A    between atoms: C3'_905  and  O3'_906 
REMARK   74  A    between atoms: O3'_906  and  P_907 
REMARK   75  A    between atoms: P_907  and  O5'_910 
REMARK   76  A    between atoms: O5'_910  and  C5'_911 
REMARK   77  A    between atoms: C5'_911  and  C4'_912 
REMARK   78  A    between atoms: C1'_914  and  N9_915 
REMARK       I    between atoms: C6_920  and  N6_921 
REMARK       I    between atoms: C2'_927  and  O2'_928 
REMARK   79  A    between atoms: C3'_930  and  O3'_931 
REMARK       I    between atoms: O3'_931  and  P_932 
REMARK       I    between atoms: P_932  and  O5'_935 
REMARK       I    between atoms: O5'_935  and  C5'_936 
REMARK       I    between atoms: C5'_936  and  C4'_937 
REMARK       I    between atoms: C1'_939  and  N1_940 
REMARK       I    between atoms: C2'_949  and  O2'_950 
REMARK       I    between atoms: C3'_952  and  O3'_953 
REMARK       I    between atoms: O3'_953  and  P_954 
REMARK       I    between atoms: P_954  and  O5'_957 
REMARK       I    between atoms: O5'_957  and  C5'_958 
REMARK       I    between atoms: C5'_958  and  C4'_959 
REMARK       I    between atoms: C1'_961  and  N1_962 
REMARK       I    between atoms: C4_967  and  N4_968 
REMARK       I    between atoms: C2'_972  and  O2'_973 
REMARK       I    between atoms: C3'_975  and  O3'_976 
REMARK       I    between atoms: O3'_976  and  P_977 
REMARK       I    between atoms: P_977  and  O5'_980 
REMARK       I    between atoms: O5'_980  and  C5'_981 
REMARK       I    between atoms: C5'_981  and  C4'_982 
REMARK       I    between atoms: C1'_984  and  N1_985 
REMARK       I    between atoms: C4_990  and  N4_991 
REMARK       I    between atoms: C2'_995  and  O2'_996 
REMARK       I    between atoms: C3'_998  and  O3'_999 
REMARK       I    between atoms: O3'_999  and  P_1000 
REMARK       I    between atoms: P_1000  and  O5'_1003 
REMARK       I    between atoms: O5'_1003  and  C5'_1004 
REMARK       I    between atoms: C5'_1004  and  C4'_1005 
REMARK   80  A    between atoms: C1'_1007  and  N1_1008 
REMARK       I    between atoms: C4_1013  and  N4_1014 
REMARK   81  A    between atoms: C2'_1018  and  O2'_1019 
REMARK   82  A    between atoms: C3'_1021  and  O3'_1022 
REMARK   83  A    between atoms: O3'_1022  and  P_1023 
REMARK   84  A    between atoms: P_1023  and  O5'_1026 
REMARK   85  A    between atoms: O5'_1026  and  C5'_1027 
REMARK   86  A    between atoms: C5'_1027  and  C4'_1028 
REMARK   87  A    between atoms: C1'_1030  and  N9_1031 
REMARK       I    between atoms: C2_1034  and  N2_1035 
REMARK       I    between atoms: C2'_1045  and  O2'_1046 
REMARK       I    between atoms: C3'_1048  and  O3'_1049 
REMARK       I    between atoms: O3'_1049  and  P_1050 
REMARK       I    between atoms: P_1050  and  O5'_1053 
REMARK       I    between atoms: O5'_1053  and  C5'_1054 
REMARK       I    between atoms: C5'_1054  and  C4'_1055 
REMARK       I    between atoms: C1'_1057  and  N9_1058 
REMARK       I    between atoms: C2_1061  and  N2_1062 
REMARK   88  A    between atoms: C2'_1072  and  O2'_1073 
REMARK   89  A    between atoms: C3'_1075  and  O3'_1076 
REMARK   90  A    between atoms: O3'_1076  and  P_1077 
REMARK       I    between atoms: P_1077  and  O5'_1080 
REMARK       I    between atoms: O5'_1080  and  C5'_1081 
REMARK       I    between atoms: C5'_1081  and  C4'_1082 
REMARK       I    between atoms: C1'_1084  and  N9_1085 
REMARK       I    between atoms: C6_1090  and  N6_1091 
REMARK       I    between atoms: C2'_1097  and  O2'_1098 
REMARK       I    between atoms: C3'_1100  and  O3'_1101 
REMARK   91  A    between atoms: O3'_1101  and  P_1102 
REMARK   92  A    between atoms: P_1102  and  O5'_1105 
REMARK   93  A    between atoms: O5'_1105  and  C5'_1106 
REMARK   94  A    between atoms: C5'_1106  and  C4'_1107 
REMARK   95  A    between atoms: C1'_1109  and  N1_1110 
REMARK       I    between atoms: C4_1115  and  N4_1116 
REMARK   96  A    between atoms: C2'_1120  and  O2'_1121 
REMARK   97  A    between atoms: C3'_1123  and  O3'_1124 
REMARK   98  A    between atoms: O3'_1124  and  P_1125 
REMARK   99  A    between atoms: P_1125  and  O5'_1128 
REMARK  100  A    between atoms: O5'_1128  and  C5'_1129 
REMARK  101  A    between atoms: C5'_1129  and  C4'_1130 
REMARK       I    between atoms: C1'_1132  and  N9_1133 
REMARK       I    between atoms: C2_1136  and  N2_1137 
REMARK       I    between atoms: C2'_1147  and  O2'_1148 
REMARK       I    between atoms: C3'_1150  and  O3'_1151 
REMARK       I    between atoms: O3'_1151  and  P_1152 
REMARK       I    between atoms: P_1152  and  O5'_1155 
REMARK       I    between atoms: O5'_1155  and  C5'_1156 
REMARK       I    between atoms: C5'_1156  and  C4'_1157 
REMARK       I    between atoms: C1'_1159  and  N9_1160 
REMARK       I    between atoms: C6_1165  and  N6_1166 
REMARK       I    between atoms: C2'_1172  and  O2'_1173 
REMARK       I    between atoms: C3'_1175  and  O3'_1176 
REMARK       I    between atoms: O3'_1176  and  P_1177 
REMARK       I    between atoms: P_1177  and  O5'_1180 
REMARK       I    between atoms: O5'_1180  and  C5'_1181 
REMARK       I    between atoms: C5'_1181  and  C4'_1182 
REMARK       I    between atoms: C1'_1184  and  N9_1185 
REMARK       I    between atoms: C2_1188  and  N2_1189 
REMARK       I    between atoms: C2'_1199  and  O2'_1200 
REMARK       I    between atoms: C3'_1202  and  O3'_1203 
REMARK       I    between atoms: O3'_1203  and  P_1204 
REMARK       I    between atoms: P_1204  and  O5'_1207 
REMARK       I    between atoms: O5'_1207  and  C5'_1208 
REMARK       I    between atoms: C5'_1208  and  C4'_1209 
REMARK       I    between atoms: C1'_1211  and  N1_1212 
REMARK       I    between atoms: C4_1217  and  N4_1218 
REMARK       I    between atoms: C2'_1222  and  O2'_1223 
REMARK       I    between atoms: C3'_1225  and  O3'_1226 
REMARK       I    between atoms: O3'_1226  and  P_1227 
REMARK       I    between atoms: P_1227  and  O5'_1230 
REMARK       I    between atoms: O5'_1230  and  C5'_1231 
REMARK       I    between atoms: C5'_1231  and  C4'_1232 
REMARK       I    between atoms: C1'_1234  and  N1_1235 
REMARK       I    between atoms: C4_1240  and  N4_1241 
REMARK       I    between atoms: C2'_1245  and  O2'_1246 
REMARK       I    between atoms: C3'_1248  and  O3'_1249 
REMARK       I    between atoms: O3'_1249  and  P_1250 
REMARK       I    between atoms: P_1250  and  O5'_1253 
REMARK       I    between atoms: O5'_1253  and  C5'_1254 
REMARK       I    between atoms: C5'_1254  and  C4'_1255 
REMARK       I    between atoms: C1'_1257  and  N1_1258 
REMARK       I    between atoms: C4_1263  and  N4_1264 
REMARK       I    between atoms: C2'_1268  and  O2'_1269 
REMARK       I    between atoms: C3'_1271  and  O3'_1272 
ROOT
ATOM      1 'HO5   G A   1     -41.016  -2.894  46.956  1.00  0.00     0.209 HD
ATOM      2  O5'   G A   1     -41.345  -3.412  47.695  1.00  0.00    -0.398 OA
ATOM      3  C5'   G A   1     -42.604  -3.962  47.297  1.00  0.00     0.198 C 
ATOM      4  C4'   G A   1     -42.817  -3.797  45.811  1.00  0.00     0.180 C 
ATOM      5  O4'   G A   1     -42.967  -2.380  45.514  1.00  0.00    -0.353 OA
ATOM      6  C1'   G A   1     -42.215  -2.048  44.362  1.00  0.00     0.262 C 
ATOM      7  N9    G A   1     -41.093  -1.208  44.771  1.00  0.00    -0.293 N 
ATOM      8  C4    G A   1     -40.098  -0.721  43.957  1.00  0.00     0.187 A 
ATOM      9  N3    G A   1     -39.986  -0.931  42.629  1.00  0.00    -0.044 NA
ATOM     10  C2    G A   1     -38.921  -0.336  42.124  1.00  0.00     0.703 A 
ATOM     11  N2    G A   1     -38.657  -0.442  40.819  1.00  0.00    -0.233 N 
ATOM     12  H21   G A   1     -39.277  -0.979  40.232  1.00  0.00     0.174 HD
ATOM     13  H22   G A   1     -37.843   0.010  40.426  1.00  0.00     0.174 HD
ATOM     14  N1    G A   1     -38.035   0.407  42.860  1.00  0.00    -0.153 N 
ATOM     15  H1    G A   1     -37.255   0.818  42.373  1.00  0.00     0.187 HD
ATOM     16  C6    G A   1     -38.129   0.639  44.227  1.00  0.00     0.292 A 
ATOM     17  O6    G A   1     -37.271   1.329  44.794  1.00  0.00    -0.265 OA
ATOM     18  C5    G A   1     -39.269   0.005  44.786  1.00  0.00     0.173 A 
ATOM     19  N7    G A   1     -39.734  -0.021  46.095  1.00  0.00    -0.234 NA
ATOM     20  C8    G A   1     -40.815  -0.750  46.036  1.00  0.00     0.214 A 
ATOM     21  C2'   G A   1     -41.792  -3.363  43.710  1.00  0.00     0.199 C 
ATOM     22  C3'   G A   1     -41.662  -4.263  44.932  1.00  0.00     0.198 C 
ENDROOT
BRANCH  22  23
ATOM     23  O3'   G A   1     -41.778  -5.646  44.607  1.00  0.00    -0.279 OA
BRANCH  23  24
ATOM     24  P     G A   2     -43.232  -6.327  44.511  1.00  0.00     0.408 P 
ATOM     25  OP2   G A   2     -43.269  -7.491  45.433  1.00  0.00    -0.624 OA
ATOM     26  OP1   G A   2     -44.235  -5.242  44.658  1.00  0.00    -0.624 OA
BRANCH  24  27
ATOM     27  O5'   G A   2     -43.305  -6.872  43.015  1.00  0.00    -0.287 OA
ATOM     28  C5'   G A   2     -43.324  -8.272  42.745  1.00  0.00     0.216 C 
ATOM     29  C4'   G A   2     -43.311  -8.516  41.254  1.00  0.00     0.180 C 
ATOM     30  C3'   G A   2     -42.257  -7.751  40.468  1.00  0.00     0.198 C 
ATOM     31  O4'   G A   2     -44.569  -8.064  40.685  1.00  0.00    -0.353 OA
ATOM     32  C2'   G A   2     -42.858  -7.721  39.068  1.00  0.00     0.199 C 
ATOM     33  O3'   G A   2     -40.991  -8.406  40.505  1.00  0.00    -0.279 OA
ATOM     34  O2'   G A   2     -42.684  -8.961  38.410  1.00  0.00    -0.388 OA
ATOM     35  C1'   G A   2     -44.342  -7.539  39.388  1.00  0.00     0.262 C 
ATOM     36 'HO2   G A   2     -41.940  -9.394  38.829  1.00  0.00     0.210 HD
ATOM     37  N9    G A   2     -44.776  -6.146  39.371  1.00  0.00    -0.293 N 
ATOM     38  C8    G A   2     -45.126  -5.370  40.449  1.00  0.00     0.214 A 
ATOM     39  C4    G A   2     -44.916  -5.349  38.260  1.00  0.00     0.187 A 
ATOM     40  N7    G A   2     -45.477  -4.157  40.119  1.00  0.00    -0.234 NA
ATOM     41  C5    G A   2     -45.349  -4.129  38.736  1.00  0.00     0.173 A 
ATOM     42  C6    G A   2     -45.587  -3.080  37.810  1.00  0.00     0.292 A 
ATOM     43  O6    G A   2     -45.975  -1.928  38.031  1.00  0.00    -0.265 OA
ATOM     44  N1    G A   2     -45.327  -3.483  36.505  1.00  0.00    -0.153 N 
ATOM     45  H1    G A   2     -45.466  -2.804  35.774  1.00  0.00     0.187 HD
ATOM     46  C2    G A   2     -44.896  -4.731  36.137  1.00  0.00     0.703 A 
ATOM     47  N2    G A   2     -44.701  -4.924  34.830  1.00  0.00    -0.233 N 
ATOM     48  N3    G A   2     -44.671  -5.716  36.986  1.00  0.00    -0.044 NA
ATOM     49  H22   G A   2     -44.870  -4.175  34.172  1.00  0.00     0.174 HD
ATOM     50  H21   G A   2     -44.383  -5.825  34.504  1.00  0.00     0.174 HD
ATOM     51  P     C A   3     -39.641  -7.548  40.336  1.00  0.00     0.408 P 
ATOM     52  OP2   C A   3     -39.688  -6.403  41.281  1.00  0.00    -0.624 OA
ATOM     53  O5'   C A   3     -39.734  -6.972  38.853  1.00  0.00    -0.287 OA
ATOM     54  OP1   C A   3     -38.503  -8.500  40.392  1.00  0.00    -0.624 OA
ATOM     55  C5'   C A   3     -39.754  -7.846  37.727  1.00  0.00     0.216 C 
ATOM     56  C4'   C A   3     -39.746  -7.048  36.443  1.00  0.00     0.180 C 
ATOM     57  C3'   C A   3     -38.811  -5.849  36.412  1.00  0.00     0.198 C 
ATOM     58  O4'   C A   3     -41.059  -6.461  36.233  1.00  0.00    -0.353 OA
ATOM     59  O3'   C A   3     -37.467  -6.221  36.121  1.00  0.00    -0.279 OA
ATOM     60  C2'   C A   3     -39.432  -4.995  35.315  1.00  0.00     0.199 C 
ATOM     61  P     T A   4     -36.260  -5.252  36.557  1.00  0.00     0.408 P 
ATOM     62  O5'   T A   4     -36.449  -3.964  35.638  1.00  0.00    -0.287 OA
ATOM     63  OP1   T A   4     -34.992  -5.920  36.167  1.00  0.00    -0.624 OA
ATOM     64  OP2   T A   4     -36.470  -4.846  37.971  1.00  0.00    -0.624 OA
ATOM     65  C5'   T A   4     -36.113  -3.997  34.252  1.00  0.00     0.216 C 
ATOM     66  C4'   T A   4     -36.680  -2.788  33.542  1.00  0.00     0.180 C 
ATOM     67  C3'   T A   4     -35.989  -1.464  33.825  1.00  0.00     0.198 C 
ATOM     68  O4'   T A   4     -38.040  -2.544  33.986  1.00  0.00    -0.353 OA
ATOM     69  C2'   T A   4     -37.053  -0.456  33.404  1.00  0.00     0.199 C 
ATOM     70  O2'   T A   4     -37.091  -0.309  31.997  1.00  0.00    -0.388 OA
ATOM     71  C1'   T A   4     -38.335  -1.164  33.853  1.00  0.00     0.264 C 
ATOM     72 'HO2   T A   4     -36.183  -0.254  31.698  1.00  0.00     0.210 HD
ATOM     73  N1    T A   4     -38.855  -0.667  35.136  1.00  0.00    -0.280 N 
ATOM     74  C2    T A   4     -39.472   0.571  35.141  1.00  0.00     0.331 A 
ATOM     75  C6    T A   4     -38.732  -1.403  36.294  1.00  0.00     0.104 A 
ATOM     76  O2    T A   4     -39.603   1.251  34.140  1.00  0.00    -0.246 OA
ATOM     77  N3    T A   4     -39.932   0.985  36.364  1.00  0.00    -0.275 N 
ATOM     78  H3    T A   4     -40.383   1.888  36.389  1.00  0.00     0.173 HD
ATOM     79  C4    T A   4     -39.843   0.305  37.557  1.00  0.00     0.250 A 
ATOM     80  C5    T A   4     -39.196  -0.967  37.470  1.00  0.00     0.092 A 
ATOM     81  O4    T A   4     -40.305   0.815  38.578  1.00  0.00    -0.268 OA
ATOM     82  C1'   C A   3     -40.920  -5.202  35.596  1.00  0.00     0.264 C 
ATOM     83  O2'   C A   3     -39.137  -5.513  34.031  1.00  0.00    -0.388 OA
ATOM     84  N1    C A   3     -41.495  -4.166  36.470  1.00  0.00    -0.278 N 
ATOM     85  C2    C A   3     -41.907  -2.961  35.900  1.00  0.00     0.352 A 
ATOM     86  C6    C A   3     -41.625  -4.372  37.816  1.00  0.00     0.102 A 
ATOM     87  N3    C A   3     -42.432  -1.999  36.690  1.00  0.00    -0.177 NA
ATOM     88  O2    C A   3     -41.781  -2.801  34.678  1.00  0.00    -0.244 OA
ATOM     89  C4    C A   3     -42.554  -2.207  38.001  1.00  0.00     0.128 A 
ATOM     90  N4    C A   3     -43.077  -1.229  38.738  1.00  0.00    -0.384 N 
ATOM     91  C5    C A   3     -42.145  -3.428  38.612  1.00  0.00     0.067 A 
ATOM     92  H41   C A   3     -43.188  -1.344  39.735  1.00  0.00     0.157 HD
ATOM     93  H42   C A   3     -43.364  -0.368  38.292  1.00  0.00     0.157 HD
ATOM     94 'HO2   C A   3     -38.230  -5.817  34.055  1.00  0.00     0.210 HD
BRANCH  67  95
ATOM     95  O3'   T A   4     -34.779  -1.327  33.084  1.00  0.00    -0.279 OA
BRANCH  95  96
ATOM     96  P     C A   5     -33.429  -0.877  33.835  1.00  0.00     0.408 P 
ATOM     97  OP1   C A   5     -32.542  -0.258  32.817  1.00  0.00    -0.624 OA
ATOM     98  OP2   C A   5     -32.934  -2.023  34.640  1.00  0.00    -0.624 OA
BRANCH  96  99
ATOM     99  O5'   C A   5     -33.908   0.264  34.839  1.00  0.00    -0.287 OA
BRANCH  99 100
ATOM    100  C5'   C A   5     -34.256   1.562  34.363  1.00  0.00     0.216 C 
BRANCH 100 101
ATOM    101  C4'   C A   5     -34.970   2.342  35.443  1.00  0.00     0.180 C 
ATOM    102  C3'   C A   5     -34.089   2.909  36.544  1.00  0.00     0.198 C 
ATOM    103  C2'   C A   5     -35.084   3.123  37.681  1.00  0.00     0.199 C 
ATOM    104  C1'   C A   5     -36.034   1.937  37.486  1.00  0.00     0.264 C 
ATOM    105  O4'   C A   5     -35.873   1.463  36.159  1.00  0.00    -0.353 OA
BRANCH 102 106
ATOM    106  O3'   C A   5     -33.450   4.118  36.144  1.00  0.00    -0.279 OA
BRANCH 106 107
ATOM    107  P     G A   6     -34.026   4.949  34.892  1.00  0.00     0.408 P 
ATOM    108  OP1   G A   6     -35.494   4.720  34.851  1.00  0.00    -0.624 OA
ATOM    109  OP2   G A   6     -33.200   4.636  33.699  1.00  0.00    -0.624 OA
BRANCH 107 110
ATOM    110  O5'   G A   6     -33.771   6.473  35.288  1.00  0.00    -0.287 OA
BRANCH 110 111
ATOM    111  C5'   G A   6     -32.984   6.814  36.427  1.00  0.00     0.216 C 
BRANCH 111 112
ATOM    112  C4'   G A   6     -31.756   7.588  36.004  1.00  0.00     0.180 C 
ATOM    113  C3'   G A   6     -31.432   8.819  36.837  1.00  0.00     0.198 C 
ATOM    114  C2'   G A   6     -30.595   9.647  35.870  1.00  0.00     0.199 C 
ATOM    115  C1'   G A   6     -31.312   9.372  34.548  1.00  0.00     0.262 C 
ATOM    116  O4'   G A   6     -31.955   8.114  34.664  1.00  0.00    -0.353 OA
BRANCH 113 117
ATOM    117  O3'   G A   6     -30.722   8.481  38.025  1.00  0.00    -0.279 OA
ATOM    118  P     T A   7     -29.143   8.174  37.954  1.00  0.00     0.408 P 
ATOM    119  OP1   T A   7     -28.670   7.960  39.345  1.00  0.00    -0.624 OA
ATOM    120  OP2   T A   7     -28.496   9.212  37.111  1.00  0.00    -0.624 OA
ATOM    121  O5'   T A   7     -29.053   6.784  37.180  1.00  0.00    -0.287 OA
ATOM    122  C5'   T A   7     -29.555   5.583  37.766  1.00  0.00     0.216 C 
ATOM    123  C4'   T A   7     -29.617   4.483  36.732  1.00  0.00     0.180 C 
ATOM    124  C3'   T A   7     -28.281   4.069  36.133  1.00  0.00     0.198 C 
ATOM    125  O4'   T A   7     -30.384   4.946  35.592  1.00  0.00    -0.353 OA
ATOM    126  O3'   T A   7     -27.611   3.125  36.965  1.00  0.00    -0.279 OA
ATOM    127  C2'   T A   7     -28.685   3.475  34.787  1.00  0.00     0.199 C 
ATOM    128  P     T A   8     -26.035   2.865  36.773  1.00  0.00     0.408 P 
ATOM    129  OP2   T A   8     -25.449   4.034  36.068  1.00  0.00    -0.624 OA
ATOM    130  OP1   T A   8     -25.491   2.453  38.091  1.00  0.00    -0.624 OA
ATOM    131  O5'   T A   8     -25.970   1.611  35.791  1.00  0.00    -0.287 OA
ATOM    132  C5'   T A   8     -26.359   0.310  36.227  1.00  0.00     0.216 C 
ATOM    133  C4'   T A   8     -25.997  -0.719  35.180  1.00  0.00     0.180 C 
ATOM    134  C3'   T A   8     -24.559  -0.651  34.679  1.00  0.00     0.198 C 
ATOM    135  O4'   T A   8     -26.820  -0.493  34.002  1.00  0.00    -0.353 OA
ATOM    136  C2'   T A   8     -24.677  -1.165  33.249  1.00  0.00     0.199 C 
ATOM    137  O3'   T A   8     -23.687  -1.454  35.469  1.00  0.00    -0.279 OA
ATOM    138  O2'   T A   8     -24.772  -2.577  33.221  1.00  0.00    -0.388 OA
ATOM    139  C1'   T A   8     -26.022  -0.572  32.835  1.00  0.00     0.264 C 
ATOM    140 'HO2   T A   8     -24.467  -2.887  34.074  1.00  0.00     0.210 HD
ATOM    141  N1    T A   8     -25.920   0.773  32.249  1.00  0.00    -0.280 N 
ATOM    142  C2    T A   8     -25.778   0.871  30.877  1.00  0.00     0.331 A 
ATOM    143  C6    T A   8     -25.962   1.898  33.039  1.00  0.00     0.104 A 
ATOM    144  O2    T A   8     -25.740  -0.099  30.142  1.00  0.00    -0.246 OA
ATOM    145  N3    T A   8     -25.684   2.151  30.395  1.00  0.00    -0.275 N 
ATOM    146  H3    T A   8     -25.576   2.248  29.398  1.00  0.00     0.173 HD
ATOM    147  C4    T A   8     -25.717   3.317  31.127  1.00  0.00     0.250 A 
ATOM    148  C5    T A   8     -25.866   3.130  32.534  1.00  0.00     0.092 A 
ATOM    149  O4    T A   8     -25.625   4.398  30.547  1.00  0.00    -0.268 OA
ATOM    150  O2'   T A   7     -29.118   2.136  34.928  1.00  0.00    -0.388 OA
ATOM    151  C1'   T A   7     -29.891   4.339  34.411  1.00  0.00     0.264 C 
ATOM    152 'HO2   T A   7     -28.697   1.784  35.715  1.00  0.00     0.210 HD
ATOM    153  N1    T A   7     -29.578   5.399  33.442  1.00  0.00    -0.280 N 
ATOM    154  C6    T A   7     -29.449   6.714  33.832  1.00  0.00     0.104 A 
ATOM    155  C2    T A   7     -29.419   5.031  32.119  1.00  0.00     0.331 A 
ATOM    156  C5    T A   7     -29.174   7.693  32.965  1.00  0.00     0.092 A 
ATOM    157  C4    T A   7     -28.998   7.392  31.579  1.00  0.00     0.250 A 
ATOM    158  N3    T A   7     -29.135   6.061  31.261  1.00  0.00    -0.275 N 
ATOM    159  O4    T A   7     -28.745   8.203  30.689  1.00  0.00    -0.268 OA
ATOM    160  H3    T A   7     -29.010   5.808  30.292  1.00  0.00     0.173 HD
ATOM    161  O2    T A   7     -29.520   3.881  31.734  1.00  0.00    -0.246 OA
BRANCH 137 162
ATOM    162  P     G A   9     -22.173  -0.973  35.727  1.00  0.00     0.408 P 
ATOM    163  OP2   G A   9     -22.089  -0.426  37.105  1.00  0.00    -0.624 OA
ATOM    164  OP1   G A   9     -21.281  -2.092  35.326  1.00  0.00    -0.624 OA
BRANCH 162 165
ATOM    165  O5'   G A   9     -21.964   0.226  34.698  1.00  0.00    -0.287 OA
BRANCH 165 166
ATOM    166  C5'   G A   9     -21.121   0.079  33.557  1.00  0.00     0.216 C 
ATOM    167  C4'   G A   9     -20.170   1.250  33.452  1.00  0.00     0.180 C 
ATOM    168  C3'   G A   9     -19.195   1.413  34.611  1.00  0.00     0.198 C 
ATOM    169  O4'   G A   9     -20.941   2.483  33.450  1.00  0.00    -0.353 OA
ATOM    170  O3'   G A   9     -18.023   0.621  34.426  1.00  0.00    -0.279 OA
ATOM    171  C2'   G A   9     -18.893   2.907  34.581  1.00  0.00     0.199 C 
ATOM    172  P     G A  10     -17.168   0.147  35.705  1.00  0.00     0.408 P 
ATOM    173  OP1   G A  10     -16.066  -0.712  35.201  1.00  0.00    -0.624 OA
ATOM    174  OP2   G A  10     -18.104  -0.387  36.727  1.00  0.00    -0.624 OA
ATOM    175  O5'   G A  10     -16.525   1.493  36.267  1.00  0.00    -0.287 OA
ATOM    176  C5'   G A  10     -15.665   2.294  35.456  1.00  0.00     0.216 C 
ATOM    177  C4'   G A  10     -15.301   3.569  36.183  1.00  0.00     0.180 C 
ATOM    178  O4'   G A  10     -16.516   4.152  36.738  1.00  0.00    -0.353 OA
ATOM    179  C3'   G A  10     -14.345   3.393  37.362  1.00  0.00     0.198 C 
ATOM    180  C1'   G A  10     -16.343   4.370  38.121  1.00  0.00     0.262 C 
ATOM    181  C2'   G A  10     -15.279   3.374  38.568  1.00  0.00     0.199 C 
ATOM    182  N9    G A  10     -17.633   4.216  38.786  1.00  0.00    -0.293 N 
ATOM    183  C8    G A  10     -18.642   3.345  38.454  1.00  0.00     0.214 A 
ATOM    184  C4    G A  10     -18.073   4.920  39.880  1.00  0.00     0.187 A 
ATOM    185  N7    G A  10     -19.678   3.433  39.245  1.00  0.00    -0.234 NA
ATOM    186  C5    G A  10     -19.331   4.425  40.152  1.00  0.00     0.173 A 
ATOM    187  C6    G A  10     -20.054   4.963  41.252  1.00  0.00     0.292 A 
ATOM    188  O6    G A  10     -21.183   4.662  41.657  1.00  0.00    -0.265 OA
ATOM    189  N1    G A  10     -19.327   5.951  41.904  1.00  0.00    -0.153 N 
ATOM    190  H1    G A  10     -19.758   6.392  42.703  1.00  0.00     0.187 HD
ATOM    191  C2    G A  10     -18.073   6.374  41.546  1.00  0.00     0.703 A 
ATOM    192  N3    G A  10     -17.389   5.885  40.528  1.00  0.00    -0.044 NA
ATOM    193  N2    G A  10     -17.540   7.342  42.295  1.00  0.00    -0.233 N 
ATOM    194  H22   G A  10     -18.054   7.719  43.080  1.00  0.00     0.174 HD
ATOM    195  H21   G A  10     -16.620   7.693  42.076  1.00  0.00     0.174 HD
ATOM    196  O2'   G A   9     -17.963   3.221  33.561  1.00  0.00    -0.388 OA
ATOM    197  C1'   G A   9     -20.257   3.477  34.192  1.00  0.00     0.262 C 
ATOM    198 'HO2   G A   9     -17.567   2.395  33.287  1.00  0.00     0.210 HD
BRANCH 181 199
ATOM    199  O2'   G A  10     -14.635   3.877  39.724  1.00  0.00    -0.388 OA
ATOM    200 'HO2   G A  10     -15.313   4.293  40.259  1.00  0.00     0.210 HD
ENDBRANCH 181 199
BRANCH 179 201
ATOM    201  O3'   G A  10     -13.407   4.464  37.432  1.00  0.00    -0.279 OA
BRANCH 201 202
ATOM    202  P     T A  11     -12.675   4.974  36.093  1.00  0.00     0.408 P 
ATOM    203  OP2   T A  11     -12.887   3.960  35.029  1.00  0.00    -0.624 OA
ATOM    204  OP1   T A  11     -13.094   6.378  35.858  1.00  0.00    -0.624 OA
BRANCH 202 205
ATOM    205  O5'   T A  11     -11.128   4.971  36.474  1.00  0.00    -0.287 OA
BRANCH 205 206
ATOM    206  C5'   T A  11     -10.234   3.997  35.938  1.00  0.00     0.216 C 
BRANCH 206 207
ATOM    207  C4'   T A  11      -8.813   4.510  35.991  1.00  0.00     0.180 C 
ATOM    208  O4'   T A  11      -7.920   3.481  35.468  1.00  0.00    -0.353 OA
ATOM    209  C1'   T A  11      -6.996   4.064  34.565  1.00  0.00     0.264 C 
ATOM    210  C2'   T A  11      -7.059   5.572  34.796  1.00  0.00     0.199 C 
ATOM    211  N1    T A  11      -7.359   3.658  33.198  1.00  0.00    -0.280 N 
ATOM    212  O2'   T A  11      -6.235   5.902  35.898  1.00  0.00    -0.388 OA
ATOM    213  C3'   T A  11      -8.532   5.742  35.137  1.00  0.00     0.198 C 
ATOM    214 'HO2   T A  11      -6.684   6.598  36.378  1.00  0.00     0.210 HD
ATOM    215  O3'   T A  11      -8.791   6.947  35.850  1.00  0.00    -0.279 OA
ATOM    216  P     C A  12      -9.436   8.207  35.084  1.00  0.00     0.408 P 
ATOM    217  O5'   C A  12      -8.247   8.754  34.174  1.00  0.00    -0.287 OA
ATOM    218  OP2   C A  12     -10.512   7.714  34.188  1.00  0.00    -0.624 OA
ATOM    219  OP1   C A  12      -9.749   9.236  36.107  1.00  0.00    -0.624 OA
ATOM    220  C5'   C A  12      -7.137   9.441  34.750  1.00  0.00     0.216 C 
ATOM    221  C4'   C A  12      -6.084   9.709  33.698  1.00  0.00     0.180 C 
ATOM    222  O4'   C A  12      -5.698   8.448  33.083  1.00  0.00    -0.353 OA
ATOM    223  C3'   C A  12      -6.531  10.575  32.530  1.00  0.00     0.198 C 
ATOM    224  C1'   C A  12      -5.474   8.642  31.697  1.00  0.00     0.264 C 
ATOM    225  C2'   C A  12      -5.579  10.141  31.423  1.00  0.00     0.199 C 
ATOM    226  N1    C A  12      -6.454   7.837  30.949  1.00  0.00    -0.278 N 
ATOM    227  C6    C A  12      -7.533   7.281  31.578  1.00  0.00     0.102 A 
ATOM    228  C2    C A  12      -6.266   7.649  29.575  1.00  0.00     0.352 A 
ATOM    229  C5    C A  12      -8.424   6.545  30.903  1.00  0.00     0.067 A 
ATOM    230  C4    C A  12      -8.205   6.368  29.506  1.00  0.00     0.128 A 
ATOM    231  N3    C A  12      -7.158   6.909  28.880  1.00  0.00    -0.177 NA
ATOM    232  N4    C A  12      -9.056   5.645  28.780  1.00  0.00    -0.384 N 
ATOM    233  H42   C A  12      -8.894   5.523  27.791  1.00  0.00     0.157 HD
ATOM    234  H41   C A  12      -9.861   5.218  29.216  1.00  0.00     0.157 HD
ATOM    235  O2    C A  12      -5.283   8.167  29.026  1.00  0.00    -0.244 OA
ATOM    236  C6    T A  11      -8.488   2.909  32.951  1.00  0.00     0.104 A 
ATOM    237  C2    T A  11      -6.531   4.057  32.166  1.00  0.00     0.331 A 
ATOM    238  C5    T A  11      -8.849   2.545  31.717  1.00  0.00     0.092 A 
ATOM    239  C4    T A  11      -8.051   2.929  30.598  1.00  0.00     0.250 A 
ATOM    240  N3    T A  11      -6.933   3.665  30.916  1.00  0.00    -0.275 N 
ATOM    241  O4    T A  11      -8.296   2.686  29.417  1.00  0.00    -0.268 OA
ATOM    242  H3    T A  11      -6.345   3.947  30.145  1.00  0.00     0.173 HD
ATOM    243  O2    T A  11      -5.519   4.708  32.343  1.00  0.00    -0.246 OA
BRANCH 225 244
ATOM    244  O2'   C A  12      -4.299  10.723  31.587  1.00  0.00    -0.388 OA
ATOM    245 'HO2   C A  12      -4.410  11.488  32.153  1.00  0.00     0.210 HD
ENDBRANCH 225 244
BRANCH 223 246
ATOM    246  O3'   C A  12      -6.420  11.965  32.827  1.00  0.00    -0.279 OA
BRANCH 246 247
ATOM    247  P     T A  13      -7.712  12.916  32.696  1.00  0.00     0.408 P 
ATOM    248  OP2   T A  13      -7.251  14.323  32.579  1.00  0.00    -0.624 OA
ATOM    249  OP1   T A  13      -8.582  12.339  31.641  1.00  0.00    -0.624 OA
BRANCH 247 250
ATOM    250  O5'   T A  13      -8.454  12.757  34.097  1.00  0.00    -0.287 OA
BRANCH 250 251
ATOM    251  C5'   T A  13      -9.742  12.149  34.181  1.00  0.00     0.216 C 
BRANCH 251 252
ATOM    252  C4'   T A  13     -10.790  13.054  33.577  1.00  0.00     0.180 C 
ATOM    253  O4'   T A  13     -11.515  12.324  32.548  1.00  0.00    -0.353 OA
ATOM    254  C1'   T A  13     -12.889  12.675  32.591  1.00  0.00     0.264 C 
ATOM    255  C2'   T A  13     -13.026  13.831  33.580  1.00  0.00     0.199 C 
ATOM    256  O2'   T A  13     -12.817  15.049  32.889  1.00  0.00    -0.388 OA
ATOM    257  C3'   T A  13     -11.877  13.531  34.531  1.00  0.00     0.198 C 
ATOM    258 'HO2   T A  13     -12.186  15.552  33.404  1.00  0.00     0.210 HD
ATOM    259  O3'   T A  13     -11.470  14.677  35.273  1.00  0.00    -0.279 OA
ATOM    260  P     C A  14     -12.177  15.010  36.679  1.00  0.00     0.408 P 
ATOM    261  O5'   C A  14     -13.681  15.360  36.283  1.00  0.00    -0.287 OA
ATOM    262  OP1   C A  14     -11.541  16.240  37.216  1.00  0.00    -0.624 OA
ATOM    263  OP2   C A  14     -12.191  13.773  37.501  1.00  0.00    -0.624 OA
ATOM    264  C5'   C A  14     -13.981  16.500  35.481  1.00  0.00     0.216 C 
ATOM    265  C4'   C A  14     -15.471  16.595  35.241  1.00  0.00     0.180 C 
ATOM    266  O4'   C A  14     -15.893  15.500  34.382  1.00  0.00    -0.353 OA
ATOM    267  C3'   C A  14     -16.353  16.445  36.472  1.00  0.00     0.198 C 
ATOM    268  C1'   C A  14     -17.199  15.083  34.752  1.00  0.00     0.264 C 
ATOM    269  C2'   C A  14     -17.679  16.025  35.856  1.00  0.00     0.199 C 
ATOM    270  N1    C A  14     -17.139  13.671  35.168  1.00  0.00    -0.278 N 
ATOM    271  O2'   C A  14     -18.337  17.128  35.259  1.00  0.00    -0.388 OA
ATOM    272 'HO2   C A  14     -17.976  17.915  35.667  1.00  0.00     0.210 HD
ATOM    273  C2    C A  14     -18.299  12.896  35.093  1.00  0.00     0.352 A 
ATOM    274  C6    C A  14     -15.972  13.124  35.623  1.00  0.00     0.102 A 
ATOM    275  O2    C A  14     -19.343  13.416  34.676  1.00  0.00    -0.244 OA
ATOM    276  N3    C A  14     -18.254  11.601  35.475  1.00  0.00    -0.177 NA
ATOM    277  C4    C A  14     -17.109  11.075  35.913  1.00  0.00     0.128 A 
ATOM    278  C5    C A  14     -15.911  11.840  35.999  1.00  0.00     0.067 A 
ATOM    279  N4    C A  14     -17.113   9.792  36.273  1.00  0.00    -0.384 N 
ATOM    280  H42   C A  14     -17.967   9.256  36.212  1.00  0.00     0.157 HD
ATOM    281  H41   C A  14     -16.268   9.354  36.610  1.00  0.00     0.157 HD
ATOM    282  O3'   C A  14     -16.452  17.657  37.214  1.00  0.00    -0.279 OA
ATOM    283  P     G A  15     -16.849  17.609  38.772  1.00  0.00     0.408 P 
ATOM    284  OP1   G A  15     -16.794  19.001  39.285  1.00  0.00    -0.624 OA
ATOM    285  OP2   G A  15     -16.041  16.551  39.432  1.00  0.00    -0.624 OA
ATOM    286  O5'   G A  15     -18.373  17.142  38.768  1.00  0.00    -0.287 OA
ATOM    287  C5'   G A  15     -19.379  17.930  38.133  1.00  0.00     0.216 C 
ATOM    288  C4'   G A  15     -20.736  17.285  38.303  1.00  0.00     0.180 C 
ATOM    289  O4'   G A  15     -20.818  16.099  37.470  1.00  0.00    -0.353 OA
ATOM    290  C3'   G A  15     -21.055  16.759  39.693  1.00  0.00     0.198 C 
ATOM    291  C1'   G A  15     -21.686  15.158  38.080  1.00  0.00     0.262 C 
ATOM    292  N9    G A  15     -20.965  13.899  38.247  1.00  0.00    -0.293 N 
ATOM    293  C2'   G A  15     -22.168  15.759  39.402  1.00  0.00     0.199 C 
ATOM    294  C8    G A  15     -19.604  13.712  38.235  1.00  0.00     0.214 A 
ATOM    295  C4    G A  15     -21.523  12.662  38.453  1.00  0.00     0.187 A 
ATOM    296  N7    G A  15     -19.254  12.467  38.413  1.00  0.00    -0.234 NA
ATOM    297  C5    G A  15     -20.459  11.791  38.553  1.00  0.00     0.173 A 
ATOM    298  C6    G A  15     -20.723  10.414  38.775  1.00  0.00     0.292 A 
ATOM    299  N1    G A  15     -22.087  10.161  38.855  1.00  0.00    -0.153 N 
ATOM    300  O6    G A  15     -19.918   9.484  38.895  1.00  0.00    -0.265 OA
ATOM    301  H1    G A  15     -22.371   9.206  39.009  1.00  0.00     0.187 HD
ATOM    302  C2    G A  15     -23.072  11.109  38.739  1.00  0.00     0.703 A 
ATOM    303  N3    G A  15     -22.843  12.393  38.535  1.00  0.00    -0.044 NA
ATOM    304  N2    G A  15     -24.328  10.671  38.846  1.00  0.00    -0.233 N 
ATOM    305  H21   G A  15     -25.091  11.328  38.769  1.00  0.00     0.174 HD
ATOM    306  H22   G A  15     -24.514   9.690  39.006  1.00  0.00     0.174 HD
ATOM    307  O2'   G A  15     -23.401  16.416  39.178  1.00  0.00    -0.388 OA
ATOM    308 'HO2   G A  15     -23.321  17.289  39.565  1.00  0.00     0.210 HD
ATOM    309  O3'   G A  15     -21.470  17.797  40.576  1.00  0.00    -0.279 OA
ATOM    310  P     C A  16     -21.312  17.603  42.165  1.00  0.00     0.408 P 
ATOM    311  OP2   C A  16     -19.906  17.227  42.455  1.00  0.00    -0.624 OA
ATOM    312  O5'   C A  16     -22.240  16.350  42.495  1.00  0.00    -0.287 OA
ATOM    313  OP1   C A  16     -21.901  18.800  42.817  1.00  0.00    -0.624 OA
ATOM    314  C5'   C A  16     -23.657  16.429  42.350  1.00  0.00     0.216 C 
ATOM    315  C4'   C A  16     -24.289  15.087  42.643  1.00  0.00     0.180 C 
ATOM    316  O4'   C A  16     -23.838  14.114  41.666  1.00  0.00    -0.353 OA
ATOM    317  C3'   C A  16     -23.914  14.451  43.972  1.00  0.00     0.198 C 
ATOM    318  C1'   C A  16     -23.826  12.825  42.257  1.00  0.00     0.264 C 
ATOM    319  N1    C A  16     -22.487  12.239  42.080  1.00  0.00    -0.278 N 
ATOM    320  C2'   C A  16     -24.233  12.980  43.724  1.00  0.00     0.199 C 
ATOM    321  C2    C A  16     -22.347  10.851  42.152  1.00  0.00     0.352 A 
ATOM    322  C6    C A  16     -21.396  13.031  41.851  1.00  0.00     0.102 A 
ATOM    323  N3    C A  16     -21.123  10.301  41.994  1.00  0.00    -0.177 NA
ATOM    324  O2    C A  16     -23.349  10.154  42.358  1.00  0.00    -0.244 OA
ATOM    325  C4    C A  16     -20.066  11.081  41.768  1.00  0.00     0.128 A 
ATOM    326  C5    C A  16     -20.178  12.500  41.689  1.00  0.00     0.067 A 
ATOM    327  N4    C A  16     -18.882  10.492  41.613  1.00  0.00    -0.384 N 
ATOM    328  H41   C A  16     -18.056  11.047  41.439  1.00  0.00     0.157 HD
ATOM    329  H42   C A  16     -18.811   9.486  41.674  1.00  0.00     0.157 HD
BRANCH 254 330
ATOM    330  N1    T A  13     -13.662  11.482  32.967  1.00  0.00    -0.280 N 
ATOM    331  C6    T A  13     -13.100  10.476  33.718  1.00  0.00     0.104 A 
ATOM    332  C5    T A  13     -13.778   9.379  34.067  1.00  0.00     0.092 A 
ATOM    333  C4    T A  13     -15.139   9.223  33.665  1.00  0.00     0.250 A 
ATOM    334  N3    T A  13     -15.640  10.267  32.923  1.00  0.00    -0.275 N 
ATOM    335  O4    T A  13     -15.866   8.264  33.924  1.00  0.00    -0.268 OA
ATOM    336  C2    T A  13     -14.976  11.404  32.542  1.00  0.00     0.331 A 
ATOM    337  H3    T A  13     -16.602  10.192  32.626  1.00  0.00     0.173 HD
ATOM    338  O2    T A  13     -15.511  12.274  31.881  1.00  0.00    -0.246 OA
ENDBRANCH 254 330
BRANCH 320 339
ATOM    339  O2'   C A  16     -25.623  12.736  43.835  1.00  0.00    -0.388 OA
ATOM    340 'HO2   C A  16     -25.788  12.486  44.744  1.00  0.00     0.210 HD
ENDBRANCH 320 339
BRANCH 317 341
ATOM    341  O3'   C A  16     -24.664  14.996  45.053  1.00  0.00    -0.279 OA
BRANCH 341 342
ATOM    342  P     T A  17     -23.964  16.029  46.070  1.00  0.00     0.408 P 
ATOM    343  OP2   T A  17     -24.220  15.566  47.457  1.00  0.00    -0.624 OA
ATOM    344  OP1   T A  17     -22.566  16.229  45.608  1.00  0.00    -0.624 OA
BRANCH 342 345
ATOM    345  O5'   T A  17     -24.762  17.390  45.846  1.00  0.00    -0.287 OA
BRANCH 345 346
ATOM    346  C5'   T A  17     -24.146  18.508  45.209  1.00  0.00     0.216 C 
BRANCH 346 347
ATOM    347  C4'   T A  17     -25.184  19.549  44.856  1.00  0.00     0.180 C 
ATOM    348  O4'   T A  17     -24.775  20.833  45.397  1.00  0.00    -0.353 OA
ATOM    349  C1'   T A  17     -25.194  21.871  44.526  1.00  0.00     0.264 C 
ATOM    350  N1    T A  17     -24.007  22.634  44.111  1.00  0.00    -0.280 N 
ATOM    351  C2'   T A  17     -25.950  21.227  43.363  1.00  0.00     0.199 C 
ATOM    352  C2    T A  17     -24.155  23.993  43.896  1.00  0.00     0.331 A 
ATOM    353  C6    T A  17     -22.788  22.018  43.941  1.00  0.00     0.104 A 
ATOM    354  N3    T A  17     -23.014  24.647  43.511  1.00  0.00    -0.275 N 
ATOM    355  O2    T A  17     -25.216  24.574  44.036  1.00  0.00    -0.246 OA
ATOM    356  C4    T A  17     -21.767  24.097  43.327  1.00  0.00     0.250 A 
ATOM    357  H3    T A  17     -23.098  25.637  43.331  1.00  0.00     0.173 HD
ATOM    358  C5    T A  17     -21.695  22.689  43.567  1.00  0.00     0.092 A 
ATOM    359  O4    T A  17     -20.834  24.819  42.976  1.00  0.00    -0.268 OA
ATOM    360  C3'   T A  17     -25.371  19.816  43.370  1.00  0.00     0.198 C 
ATOM    361  O2'   T A  17     -27.330  21.209  43.675  1.00  0.00    -0.388 OA
ATOM    362 'HO2   T A  17     -27.611  20.294  43.633  1.00  0.00     0.210 HD
BRANCH 360 363
ATOM    363  O3'   T A  17     -26.246  18.863  42.772  1.00  0.00    -0.279 OA
BRANCH 363 364
ATOM    364  P     T A  18     -26.451  18.857  41.177  1.00  0.00     0.408 P 
ATOM    365  OP2   T A  18     -27.355  19.978  40.815  1.00  0.00    -0.624 OA
ATOM    366  OP1   T A  18     -25.104  18.771  40.558  1.00  0.00    -0.624 OA
BRANCH 364 367
ATOM    367  O5'   T A  18     -27.219  17.490  40.893  1.00  0.00    -0.287 OA
BRANCH 367 368
ATOM    368  C5'   T A  18     -26.760  16.583  39.891  1.00  0.00     0.216 C 
ATOM    369  C4'   T A  18     -27.463  15.254  40.031  1.00  0.00     0.180 C 
ATOM    370  C3'   T A  18     -28.977  15.329  40.172  1.00  0.00     0.198 C 
ATOM    371  O4'   T A  18     -27.016  14.612  41.255  1.00  0.00    -0.353 OA
ATOM    372  C2'   T A  18     -29.305  14.047  40.929  1.00  0.00     0.199 C 
ATOM    373  O3'   T A  18     -29.619  15.386  38.901  1.00  0.00    -0.279 OA
ATOM    374  C1'   T A  18     -28.099  13.930  41.863  1.00  0.00     0.264 C 
ATOM    375  O2'   T A  18     -29.317  12.930  40.061  1.00  0.00    -0.388 OA
ATOM    376  N1    T A  18     -28.324  14.515  43.193  1.00  0.00    -0.280 N 
ATOM    377  C6    T A  18     -28.336  15.879  43.381  1.00  0.00     0.104 A 
ATOM    378  C2    T A  18     -28.528  13.648  44.251  1.00  0.00     0.331 A 
ATOM    379  C5    T A  18     -28.548  16.433  44.577  1.00  0.00     0.092 A 
ATOM    380  C4    T A  18     -28.772  15.605  45.720  1.00  0.00     0.250 A 
ATOM    381  O4    T A  18     -28.979  15.996  46.868  1.00  0.00    -0.268 OA
ATOM    382  N3    T A  18     -28.743  14.253  45.463  1.00  0.00    -0.275 N 
ATOM    383  H3    T A  18     -28.900  13.639  46.248  1.00  0.00     0.173 HD
ATOM    384  O2    T A  18     -28.517  12.437  44.127  1.00  0.00    -0.246 OA
ATOM    385 'HO2   T A  18     -29.381  13.273  39.169  1.00  0.00     0.210 HD
ATOM    386  P     T A  19     -30.066  16.807  38.291  1.00  0.00     0.408 P 
ATOM    387  O5'   T A  19     -31.658  16.765  38.353  1.00  0.00    -0.287 OA
ATOM    388  OP2   T A  19     -29.595  17.894  39.189  1.00  0.00    -0.624 OA
ATOM    389  OP1   T A  19     -29.668  16.816  36.861  1.00  0.00    -0.624 OA
ATOM    390  C5'   T A  19     -32.342  16.532  39.584  1.00  0.00     0.216 C 
ATOM    391  C4'   T A  19     -33.303  15.375  39.436  1.00  0.00     0.180 C 
ATOM    392  O4'   T A  19     -34.332  15.749  38.477  1.00  0.00    -0.353 OA
ATOM    393  C3'   T A  19     -32.693  14.084  38.897  1.00  0.00     0.198 C 
ATOM    394  C1'   T A  19     -34.271  14.894  37.353  1.00  0.00     0.264 C 
ATOM    395  N1    T A  19     -34.505  15.699  36.146  1.00  0.00    -0.280 N 
ATOM    396  C2'   T A  19     -32.908  14.211  37.394  1.00  0.00     0.199 C 
ATOM    397  C2    T A  19     -35.537  15.320  35.306  1.00  0.00     0.331 A 
ATOM    398  C6    T A  19     -33.725  16.796  35.858  1.00  0.00     0.104 A 
ATOM    399  O2    T A  19     -36.250  14.358  35.526  1.00  0.00    -0.246 OA
ATOM    400  N3    T A  19     -35.703  16.110  34.197  1.00  0.00    -0.275 N 
ATOM    401  H3    T A  19     -36.449  15.850  33.572  1.00  0.00     0.173 HD
ATOM    402  C4    T A  19     -34.961  17.215  33.849  1.00  0.00     0.250 A 
ATOM    403  C5    T A  19     -33.915  17.542  34.766  1.00  0.00     0.092 A 
ATOM    404  O4    T A  19     -35.235  17.824  32.816  1.00  0.00    -0.268 OA
ATOM    405  O2'   T A  19     -33.016  12.939  36.782  1.00  0.00    -0.388 OA
ATOM    406 'HO2   T A  19     -33.280  12.325  37.469  1.00  0.00     0.210 HD
ATOM    407  O3'   T A  19     -33.345  12.935  39.434  1.00  0.00    -0.279 OA
ATOM    408  P     G A  20     -32.621  12.063  40.575  1.00  0.00     0.408 P 
ATOM    409  O5'   G A  20     -33.777  11.112  41.122  1.00  0.00    -0.287 OA
ATOM    410  OP1   G A  20     -32.233  12.990  41.667  1.00  0.00    -0.624 OA
ATOM    411  OP2   G A  20     -31.588  11.216  39.924  1.00  0.00    -0.624 OA
ATOM    412  C5'   G A  20     -35.136  11.543  41.144  1.00  0.00     0.216 C 
ATOM    413  C4'   G A  20     -35.950  10.657  42.059  1.00  0.00     0.180 C 
ATOM    414  C3'   G A  20     -35.518  10.668  43.521  1.00  0.00     0.198 C 
ATOM    415  O4'   G A  20     -35.804   9.281  41.614  1.00  0.00    -0.353 OA
ATOM    416  O3'   G A  20     -36.631  10.492  44.395  1.00  0.00    -0.279 OA
ATOM    417  C2'   G A  20     -34.531   9.508  43.601  1.00  0.00     0.199 C 
ATOM    418  P     G A  21     -36.944  11.594  45.523  1.00  0.00     0.408 P 
ATOM    419  OP1   G A  21     -37.547  10.878  46.675  1.00  0.00    -0.624 OA
ATOM    420  O5'   G A  21     -35.506  12.128  45.957  1.00  0.00    -0.287 OA
ATOM    421  OP2   G A  21     -37.684  12.712  44.886  1.00  0.00    -0.624 OA
ATOM    422  C5'   G A  21     -34.559  11.266  46.587  1.00  0.00     0.216 C 
ATOM    423  C4'   G A  21     -34.179  11.807  47.946  1.00  0.00     0.180 C 
ATOM    424  C3'   G A  21     -33.986  10.744  49.027  1.00  0.00     0.198 C 
ATOM    425  O4'   G A  21     -35.251  12.669  48.427  1.00  0.00    -0.353 OA
ATOM    426  C2'   G A  21     -35.324  10.742  49.757  1.00  0.00     0.199 C 
ATOM    427  O3'   G A  21     -32.905  11.071  49.897  1.00  0.00    -0.279 OA
ATOM    428  C1'   G A  21     -35.686  12.222  49.693  1.00  0.00     0.262 C 
ATOM    429  O2'   G A  21     -35.167  10.369  51.113  1.00  0.00    -0.388 OA
ATOM    430  N9    G A  21     -37.111  12.515  49.821  1.00  0.00    -0.293 N 
ATOM    431  C8    G A  21     -38.163  11.701  49.479  1.00  0.00     0.214 A 
ATOM    432  C4    G A  21     -37.662  13.673  50.314  1.00  0.00     0.187 A 
ATOM    433  N7    G A  21     -39.328  12.240  49.712  1.00  0.00    -0.234 NA
ATOM    434  C5    G A  21     -39.027  13.488  50.240  1.00  0.00     0.173 A 
ATOM    435  C6    G A  21     -39.881  14.532  50.685  1.00  0.00     0.292 A 
ATOM    436  O6    G A  21     -41.117  14.564  50.703  1.00  0.00    -0.265 OA
ATOM    437  N1    G A  21     -39.156  15.625  51.146  1.00  0.00    -0.153 N 
ATOM    438  H1    G A  21     -39.684  16.415  51.482  1.00  0.00     0.187 HD
ATOM    439  C2    G A  21     -37.788  15.706  51.176  1.00  0.00     0.703 A 
ATOM    440  N2    G A  21     -37.276  16.842  51.656  1.00  0.00    -0.233 N 
ATOM    441  N3    G A  21     -36.980  14.746  50.766  1.00  0.00    -0.044 NA
ATOM    442  H22   G A  21     -37.879  17.587  51.972  1.00  0.00     0.174 HD
ATOM    443  H21   G A  21     -36.272  16.948  51.697  1.00  0.00     0.174 HD
ATOM    444 'HO2   G A  21     -34.229  10.425  51.302  1.00  0.00     0.210 HD
ATOM    445  P     G A  22     -31.401  10.664  49.496  1.00  0.00     0.408 P 
ATOM    446  OP1   G A  22     -30.647  10.471  50.761  1.00  0.00    -0.624 OA
ATOM    447  O5'   G A  22     -31.554   9.243  48.789  1.00  0.00    -0.287 OA
ATOM    448  OP2   G A  22     -30.904  11.634  48.488  1.00  0.00    -0.624 OA
ATOM    449  C5'   G A  22     -31.976   8.095  49.525  1.00  0.00     0.216 C 
ATOM    450  C4'   G A  22     -31.968   6.876  48.632  1.00  0.00     0.180 C 
ATOM    451  O4'   G A  22     -32.728   7.173  47.428  1.00  0.00    -0.353 OA
ATOM    452  C3'   G A  22     -30.593   6.444  48.137  1.00  0.00     0.198 C 
ATOM    453  C1'   G A  22     -32.043   6.680  46.292  1.00  0.00     0.262 C 
ATOM    454  C2'   G A  22     -30.906   5.792  46.797  1.00  0.00     0.199 C 
ATOM    455  N9    G A  22     -31.590   7.817  45.496  1.00  0.00    -0.293 N 
ATOM    456  O2'   G A  22     -31.399   4.476  46.972  1.00  0.00    -0.388 OA
ATOM    457 'HO2   G A  22     -31.124   4.197  47.846  1.00  0.00     0.210 HD
ATOM    458  C8    G A  22     -31.736   9.149  45.798  1.00  0.00     0.214 A 
ATOM    459  C4    G A  22     -30.932   7.763  44.292  1.00  0.00     0.187 A 
ATOM    460  N7    G A  22     -31.229   9.940  44.892  1.00  0.00    -0.234 NA
ATOM    461  C5    G A  22     -30.718   9.076  43.932  1.00  0.00     0.173 A 
ATOM    462  C6    G A  22     -30.048   9.350  42.712  1.00  0.00     0.292 A 
ATOM    463  O6    G A  22     -29.763  10.445  42.216  1.00  0.00    -0.265 OA
ATOM    464  N1    G A  22     -29.699   8.181  42.047  1.00  0.00    -0.153 N 
ATOM    465  C2    G A  22     -29.960   6.912  42.496  1.00  0.00     0.703 A 
ATOM    466  H1    G A  22     -29.217   8.280  41.167  1.00  0.00     0.187 HD
ATOM    467  N3    G A  22     -30.584   6.640  43.627  1.00  0.00    -0.044 NA
ATOM    468  N2    G A  22     -29.543   5.913  41.713  1.00  0.00    -0.233 N 
ATOM    469  H21   G A  22     -29.710   4.960  41.999  1.00  0.00     0.174 HD
ATOM    470  H22   G A  22     -29.067   6.109  40.845  1.00  0.00     0.174 HD
ATOM    471  O3'   G A  22     -29.975   5.540  49.050  1.00  0.00    -0.279 OA
ATOM    472  P     T A  23     -28.405   5.679  49.373  1.00  0.00     0.408 P 
ATOM    473  O5'   T A  23     -27.706   5.566  47.945  1.00  0.00    -0.287 OA
ATOM    474  OP2   T A  23     -28.154   7.041  49.907  1.00  0.00    -0.624 OA
ATOM    475  OP1   T A  23     -28.013   4.493  50.174  1.00  0.00    -0.624 OA
ATOM    476  C5'   T A  23     -27.830   4.384  47.157  1.00  0.00     0.216 C 
ATOM    477  C4'   T A  23     -27.207   4.598  45.798  1.00  0.00     0.180 C 
ATOM    478  C3'   T A  23     -25.766   5.087  45.814  1.00  0.00     0.198 C 
ATOM    479  O4'   T A  23     -27.941   5.642  45.102  1.00  0.00    -0.353 OA
ATOM    480  O3'   T A  23     -24.848   4.002  45.917  1.00  0.00    -0.279 OA
ATOM    481  C2'   T A  23     -25.654   5.827  44.488  1.00  0.00     0.199 C 
ATOM    482  P     G A  24     -23.662   4.056  47.002  1.00  0.00     0.408 P 
ATOM    483  OP2   G A  24     -24.197   4.640  48.260  1.00  0.00    -0.624 OA
ATOM    484  OP1   G A  24     -23.027   2.714  47.029  1.00  0.00    -0.624 OA
ATOM    485  O5'   G A  24     -22.618   5.086  46.380  1.00  0.00    -0.287 OA
ATOM    486  C5'   G A  24     -22.139   4.929  45.046  1.00  0.00     0.216 C 
ATOM    487  C4'   G A  24     -21.454   6.193  44.584  1.00  0.00     0.180 C 
ATOM    488  O4'   G A  24     -22.454   7.224  44.362  1.00  0.00    -0.353 OA
ATOM    489  C3'   G A  24     -20.491   6.823  45.579  1.00  0.00     0.198 C 
ATOM    490  C1'   G A  24     -21.921   8.488  44.720  1.00  0.00     0.262 C 
ATOM    491  C2'   G A  24     -20.461   8.275  45.122  1.00  0.00     0.199 C 
ATOM    492  N9    G A  24     -22.743   9.051  45.787  1.00  0.00    -0.293 N 
ATOM    493  O2'   G A  24     -19.646   8.433  43.976  1.00  0.00    -0.388 OA
ATOM    494 'HO2   G A  24     -19.082   7.660  43.929  1.00  0.00     0.210 HD
ATOM    495  C4    G A  24     -22.694  10.340  46.261  1.00  0.00     0.187 A 
ATOM    496  C8    G A  24     -23.713   8.408  46.515  1.00  0.00     0.214 A 
ATOM    497  C5    G A  24     -23.649  10.400  47.255  1.00  0.00     0.173 A 
ATOM    498  N3    G A  24     -21.872  11.315  45.823  1.00  0.00    -0.044 NA
ATOM    499  C6    G A  24     -23.839  11.627  47.946  1.00  0.00     0.292 A 
ATOM    500  N7    G A  24     -24.284   9.174  47.404  1.00  0.00    -0.234 NA
ATOM    501  O6    G A  24     -24.635  11.887  48.856  1.00  0.00    -0.265 OA
ATOM    502  N1    G A  24     -22.982  12.615  47.477  1.00  0.00    -0.153 N 
ATOM    503  H1    G A  24     -23.043  13.524  47.909  1.00  0.00     0.187 HD
ATOM    504  C2    G A  24     -22.060  12.449  46.475  1.00  0.00     0.703 A 
ATOM    505  N2    G A  24     -21.325  13.520  46.166  1.00  0.00    -0.233 N 
ATOM    506  H22   G A  24     -21.462  14.392  46.660  1.00  0.00     0.174 HD
ATOM    507  H21   G A  24     -20.632  13.452  45.436  1.00  0.00     0.174 HD
ATOM    508  O3'   G A  24     -19.207   6.206  45.531  1.00  0.00    -0.279 OA
ATOM    509  P     C A  25     -18.273   6.202  46.841  1.00  0.00     0.408 P 
ATOM    510  OP2   C A  25     -19.101   5.815  48.012  1.00  0.00    -0.624 OA
ATOM    511  OP1   C A  25     -17.057   5.415  46.512  1.00  0.00    -0.624 OA
ATOM    512  O5'   C A  25     -17.847   7.726  47.016  1.00  0.00    -0.287 OA
ATOM    513  C5'   C A  25     -17.108   8.403  46.000  1.00  0.00     0.216 C 
ATOM    514  C1'   T A  23     -27.036   6.471  44.392  1.00  0.00     0.264 C 
ATOM    515  O2'   T A  23     -25.497   4.924  43.409  1.00  0.00    -0.388 OA
ATOM    516  N1    T A  23     -27.099   7.824  44.967  1.00  0.00    -0.280 N 
ATOM    517  C6    T A  23     -27.190   8.019  46.327  1.00  0.00     0.104 A 
ATOM    518  C2    T A  23     -27.059   8.897  44.095  1.00  0.00     0.331 A 
ATOM    519  C5    T A  23     -27.234   9.237  46.873  1.00  0.00     0.092 A 
ATOM    520  C4    T A  23     -27.188  10.398  46.038  1.00  0.00     0.250 A 
ATOM    521  O4    T A  23     -27.179  11.567  46.425  1.00  0.00    -0.268 OA
ATOM    522  N3    T A  23     -27.108  10.130  44.691  1.00  0.00    -0.275 N 
ATOM    523  H3    T A  23     -27.099  10.929  44.074  1.00  0.00     0.173 HD
ATOM    524  O2    T A  23     -26.987   8.764  42.885  1.00  0.00    -0.246 OA
ATOM    525 'HO2   T A  23     -25.123   4.121  43.775  1.00  0.00     0.210 HD
ATOM    526  C1'   G A  20     -35.138   8.523  42.605  1.00  0.00     0.262 C 
ATOM    527  O2'   G A  20     -34.544   8.911  44.884  1.00  0.00    -0.388 OA
ATOM    528  N9    G A  20     -34.152   7.673  41.946  1.00  0.00    -0.293 N 
ATOM    529  C8    G A  20     -33.089   8.080  41.178  1.00  0.00     0.214 A 
ATOM    530  C4    G A  20     -34.105   6.301  41.975  1.00  0.00     0.187 A 
ATOM    531  N7    G A  20     -32.373   7.089  40.723  1.00  0.00    -0.234 NA
ATOM    532  C5    G A  20     -33.004   5.956  41.219  1.00  0.00     0.173 A 
ATOM    533  C6    G A  20     -32.686   4.583  41.063  1.00  0.00     0.292 A 
ATOM    534  N1    G A  20     -33.591   3.768  41.735  1.00  0.00    -0.153 N 
ATOM    535  O6    G A  20     -31.751   4.073  40.434  1.00  0.00    -0.265 OA
ATOM    536  H1    G A  20     -33.443   2.773  41.679  1.00  0.00     0.187 HD
ATOM    537  C2    G A  20     -34.663   4.217  42.464  1.00  0.00     0.703 A 
ATOM    538  N3    G A  20     -34.971   5.491  42.620  1.00  0.00    -0.044 NA
ATOM    539  N2    G A  20     -35.421   3.277  43.035  1.00  0.00    -0.233 N 
ATOM    540  H21   G A  20     -36.222   3.559  43.582  1.00  0.00     0.174 HD
ATOM    541  H22   G A  20     -35.198   2.300  42.925  1.00  0.00     0.174 HD
ATOM    542 'HO2   G A  20     -35.429   9.024  45.234  1.00  0.00     0.210 HD
BRANCH 513 543
ATOM    543  C4'   C A  25     -16.795   9.816  46.432  1.00  0.00     0.180 C 
ATOM    544  C3'   C A  25     -15.321  10.197  46.436  1.00  0.00     0.198 C 
ATOM    545  C2'   C A  25     -15.297  11.351  47.429  1.00  0.00     0.199 C 
ATOM    546  C1'   C A  25     -16.280  10.841  48.481  1.00  0.00     0.264 C 
ATOM    547  O4'   C A  25     -17.205   9.996  47.817  1.00  0.00    -0.353 OA
BRANCH 544 548
ATOM    548  O3'   C A  25     -14.862  10.580  45.143  1.00  0.00    -0.279 OA
BRANCH 548 549
ATOM    549  P     G A  26     -15.927  10.885  43.976  1.00  0.00     0.408 P 
ATOM    550  OP2   G A  26     -16.255   9.609  43.291  1.00  0.00    -0.624 OA
ATOM    551  OP1   G A  26     -17.017  11.695  44.578  1.00  0.00    -0.624 OA
BRANCH 549 552
ATOM    552  O5'   G A  26     -15.127  11.810  42.954  1.00  0.00    -0.287 OA
BRANCH 552 553
ATOM    553  C5'   G A  26     -15.518  11.895  41.584  1.00  0.00     0.216 C 
ATOM    554  C4'   G A  26     -14.313  11.748  40.682  1.00  0.00     0.180 C 
ATOM    555  C3'   G A  26     -13.458  10.510  40.900  1.00  0.00     0.198 C 
ATOM    556  O4'   G A  26     -13.382  12.836  40.928  1.00  0.00    -0.353 OA
ATOM    557  C2'   G A  26     -12.144  10.920  40.248  1.00  0.00     0.199 C 
ATOM    558  O3'   G A  26     -14.026   9.349  40.300  1.00  0.00    -0.279 OA
ATOM    559  O2'   G A  26     -12.226  10.838  38.838  1.00  0.00    -0.388 OA
ATOM    560  C1'   G A  26     -12.062  12.394  40.649  1.00  0.00     0.262 C 
ATOM    561 'HO2   G A  26     -12.927  10.219  38.639  1.00  0.00     0.210 HD
ATOM    562  N9    G A  26     -11.233  12.627  41.827  1.00  0.00    -0.293 N 
ATOM    563  C4    G A  26      -9.860  12.638  41.865  1.00  0.00     0.187 A 
ATOM    564  C8    G A  26     -11.658  12.873  43.109  1.00  0.00     0.214 A 
ATOM    565  N3    G A  26      -9.036  12.435  40.816  1.00  0.00    -0.044 NA
ATOM    566  C5    G A  26      -9.532  12.894  43.180  1.00  0.00     0.173 A 
ATOM    567  C2    G A  26      -7.765  12.506  41.166  1.00  0.00     0.703 A 
ATOM    568  N2    G A  26      -6.814  12.329  40.246  1.00  0.00    -0.233 N 
ATOM    569  N1    G A  26      -7.332  12.756  42.444  1.00  0.00    -0.153 N 
ATOM    570  H21   G A  26      -7.079  12.142  39.291  1.00  0.00     0.174 HD
ATOM    571  H22   G A  26      -5.837  12.381  40.500  1.00  0.00     0.174 HD
ATOM    572  H1    G A  26      -6.336  12.789  42.602  1.00  0.00     0.187 HD
ATOM    573  C6    G A  26      -8.161  12.966  43.541  1.00  0.00     0.292 A 
ATOM    574  O6    G A  26      -7.666  13.181  44.652  1.00  0.00    -0.265 OA
ATOM    575  N7    G A  26     -10.676  13.042  43.953  1.00  0.00    -0.234 NA
ATOM    576  P     A A  27     -13.555   7.889  40.784  1.00  0.00     0.408 P 
ATOM    577  O5'   A A  27     -12.011   7.829  40.395  1.00  0.00    -0.287 OA
ATOM    578  OP2   A A  27     -13.665   7.826  42.263  1.00  0.00    -0.624 OA
ATOM    579  OP1   A A  27     -14.282   6.897  39.952  1.00  0.00    -0.624 OA
ATOM    580  C5'   A A  27     -11.601   7.776  39.028  1.00  0.00     0.216 C 
ATOM    581  C4'   A A  27     -10.098   7.638  38.935  1.00  0.00     0.180 C 
ATOM    582  C3'   A A  27      -9.471   6.549  39.792  1.00  0.00     0.198 C 
ATOM    583  O4'   A A  27      -9.467   8.850  39.425  1.00  0.00    -0.353 OA
ATOM    584  O3'   A A  27      -9.595   5.259  39.199  1.00  0.00    -0.279 OA
ATOM    585  C2'   A A  27      -8.022   7.014  39.876  1.00  0.00     0.199 C 
ATOM    586  P     G A  28      -9.442   3.944  40.113  1.00  0.00     0.408 P 
ATOM    587  OP2   G A  28     -10.346   4.077  41.283  1.00  0.00    -0.624 OA
ATOM    588  OP1   G A  28      -9.572   2.767  39.217  1.00  0.00    -0.624 OA
ATOM    589  O5'   G A  28      -7.936   4.008  40.635  1.00  0.00    -0.287 OA
ATOM    590  C5'   G A  28      -6.861   3.526  39.832  1.00  0.00     0.216 C 
ATOM    591  C4'   G A  28      -5.535   4.007  40.379  1.00  0.00     0.180 C 
ATOM    592  C3'   G A  28      -4.975   3.222  41.553  1.00  0.00     0.198 C 
ATOM    593  O4'   G A  28      -5.680   5.344  40.922  1.00  0.00    -0.353 OA
ATOM    594  C2'   G A  28      -3.985   4.213  42.159  1.00  0.00     0.199 C 
ATOM    595  C1'   G A  28      -4.709   5.543  41.936  1.00  0.00     0.262 C 
ATOM    596  N9    G A  28      -5.380   6.048  43.131  1.00  0.00    -0.293 N 
ATOM    597  C8    G A  28      -6.731   6.199  43.329  1.00  0.00     0.214 A 
ATOM    598  C4    G A  28      -4.771   6.471  44.289  1.00  0.00     0.187 A 
ATOM    599  N7    G A  28      -7.030   6.683  44.503  1.00  0.00    -0.234 NA
ATOM    600  C5    G A  28      -5.799   6.860  45.122  1.00  0.00     0.173 A 
ATOM    601  C6    G A  28      -5.480   7.356  46.414  1.00  0.00     0.292 A 
ATOM    602  O6    G A  28      -6.245   7.753  47.300  1.00  0.00    -0.265 OA
ATOM    603  N1    G A  28      -4.107   7.363  46.635  1.00  0.00    -0.153 N 
ATOM    604  C2    G A  28      -3.163   6.950  45.731  1.00  0.00     0.703 A 
ATOM    605  H1    G A  28      -3.786   7.699  47.529  1.00  0.00     0.187 HD
ATOM    606  N3    G A  28      -3.443   6.490  44.525  1.00  0.00    -0.044 NA
ATOM    607  O2'   A A  27      -7.322   6.724  38.680  1.00  0.00    -0.388 OA
ATOM    608  C1'   A A  27      -8.202   8.529  39.983  1.00  0.00     0.262 C 
ATOM    609 'HO2   A A  27      -7.499   5.808  38.472  1.00  0.00     0.210 HD
ATOM    610  N9    A A  27      -8.162   9.023  41.360  1.00  0.00    -0.294 N 
ATOM    611  C4    A A  27      -7.030   9.250  42.103  1.00  0.00     0.167 A 
ATOM    612  C8    A A  27      -9.217   9.349  42.175  1.00  0.00     0.214 A 
ATOM    613  N3    A A  27      -5.753   9.069  41.722  1.00  0.00    -0.222 NA
ATOM    614  C5    A A  27      -7.471   9.706  43.333  1.00  0.00     0.149 A 
ATOM    615  C2    A A  27      -4.919   9.393  42.705  1.00  0.00     0.237 A 
ATOM    616  N1    A A  27      -5.195   9.843  43.937  1.00  0.00    -0.222 NA
ATOM    617  C6    A A  27      -6.487  10.015  44.289  1.00  0.00     0.155 A 
ATOM    618  N6    A A  27      -6.759  10.464  45.513  1.00  0.00    -0.382 N 
ATOM    619  H62   A A  27      -6.010  10.666  46.160  1.00  0.00     0.157 HD
ATOM    620  H61   A A  27      -7.721  10.598  45.796  1.00  0.00     0.157 HD
ATOM    621  N7    A A  27      -8.857   9.765  43.364  1.00  0.00    -0.236 NA
BRANCH 592 622
ATOM    622  O3'   G A  28      -4.348   2.013  41.133  1.00  0.00    -0.279 OA
BRANCH 622 623
ATOM    623  P     A A  29      -4.865   0.601  41.706  1.00  0.00     0.408 P 
ATOM    624  OP2   A A  29      -4.120   0.299  42.955  1.00  0.00    -0.624 OA
ATOM    625  OP1   A A  29      -6.350   0.655  41.733  1.00  0.00    -0.624 OA
BRANCH 623 626
ATOM    626  O5'   A A  29      -4.427  -0.453  40.593  1.00  0.00    -0.287 OA
BRANCH 626 627
ATOM    627  C5'   A A  29      -3.783  -0.027  39.394  1.00  0.00     0.216 C 
BRANCH 627 628
ATOM    628  C4'   A A  29      -4.798   0.544  38.429  1.00  0.00     0.180 C 
ATOM    629  C3'   A A  29      -5.026  -0.259  37.155  1.00  0.00     0.198 C 
ATOM    630  O3'   A A  29      -5.936  -1.335  37.364  1.00  0.00    -0.279 OA
ATOM    631  C2'   A A  29      -5.581   0.796  36.204  1.00  0.00     0.199 C 
ATOM    632  P     G A  30      -5.951  -2.577  36.341  1.00  0.00     0.408 P 
ATOM    633  OP1   G A  30      -6.986  -3.529  36.818  1.00  0.00    -0.624 OA
ATOM    634  O5'   G A  30      -6.457  -1.944  34.968  1.00  0.00    -0.287 OA
ATOM    635  OP2   G A  30      -4.555  -3.047  36.153  1.00  0.00    -0.624 OA
ATOM    636  C5'   G A  30      -7.766  -1.385  34.854  1.00  0.00     0.216 C 
ATOM    637  C4'   G A  30      -8.089  -1.101  33.406  1.00  0.00     0.180 C 
ATOM    638  C3'   G A  30      -7.998  -2.306  32.468  1.00  0.00     0.198 C 
ATOM    639  O4'   G A  30      -7.132  -0.127  32.899  1.00  0.00    -0.353 OA
ATOM    640  O3'   G A  30      -9.067  -2.311  31.523  1.00  0.00    -0.279 OA
ATOM    641  C2'   G A  30      -6.640  -2.129  31.796  1.00  0.00     0.199 C 
ATOM    642  P     G A  31     -10.527  -2.826  31.965  1.00  0.00     0.408 P 
ATOM    643  OP1   G A  31     -10.373  -3.600  33.224  1.00  0.00    -0.624 OA
ATOM    644  OP2   G A  31     -11.161  -3.468  30.785  1.00  0.00    -0.624 OA
ATOM    645  O5'   G A  31     -11.325  -1.489  32.305  1.00  0.00    -0.287 OA
ATOM    646  C5'   G A  31     -12.028  -0.765  31.295  1.00  0.00     0.216 C 
ATOM    647  C4'   G A  31     -13.395  -0.365  31.798  1.00  0.00     0.180 C 
ATOM    648  C3'   G A  31     -14.361   0.145  30.736  1.00  0.00     0.198 C 
ATOM    649  O4'   G A  31     -13.252   0.748  32.722  1.00  0.00    -0.353 OA
ATOM    650  O3'   G A  31     -15.054  -0.923  30.096  1.00  0.00    -0.279 OA
ATOM    651  C2'   G A  31     -15.293   1.040  31.543  1.00  0.00     0.199 C 
ATOM    652  P     G A  32     -15.734  -0.685  28.657  1.00  0.00     0.408 P 
ATOM    653  OP1   G A  32     -16.417  -1.947  28.278  1.00  0.00    -0.624 OA
ATOM    654  O5'   G A  32     -16.850   0.419  28.933  1.00  0.00    -0.287 OA
ATOM    655  OP2   G A  32     -14.714  -0.101  27.749  1.00  0.00    -0.624 OA
ATOM    656  C5'   G A  32     -17.979   0.135  29.758  1.00  0.00     0.216 C 
ATOM    657  C4'   G A  32     -19.099   1.107  29.466  1.00  0.00     0.180 C 
ATOM    658  C3'   G A  32     -19.222   1.550  28.016  1.00  0.00     0.198 C 
ATOM    659  O4'   G A  32     -18.858   2.340  30.194  1.00  0.00    -0.353 OA
ATOM    660  C2'   G A  32     -19.933   2.893  28.140  1.00  0.00     0.199 C 
ATOM    661  O3'   G A  32     -19.960   0.604  27.246  1.00  0.00    -0.279 OA
ATOM    662  O2'   G A  32     -21.325   2.723  28.337  1.00  0.00    -0.388 OA
ATOM    663  C1'   G A  32     -19.324   3.441  29.432  1.00  0.00     0.262 C 
ATOM    664 'HO2   G A  32     -21.717   2.597  27.472  1.00  0.00     0.210 HD
ATOM    665  N9    G A  32     -18.206   4.353  29.213  1.00  0.00    -0.293 N 
ATOM    666  C4    G A  32     -18.288   5.701  28.958  1.00  0.00     0.187 A 
ATOM    667  C8    G A  32     -16.868   4.043  29.223  1.00  0.00     0.214 A 
ATOM    668  N3    G A  32     -19.426   6.421  28.861  1.00  0.00    -0.044 NA
ATOM    669  C5    G A  32     -16.984   6.130  28.831  1.00  0.00     0.173 A 
ATOM    670  C2    G A  32     -19.182   7.695  28.608  1.00  0.00     0.703 A 
ATOM    671  N2    G A  32     -20.200   8.550  28.477  1.00  0.00    -0.233 N 
ATOM    672  N1    G A  32     -17.924   8.222  28.465  1.00  0.00    -0.153 N 
ATOM    673  H21   G A  32     -21.145   8.209  28.573  1.00  0.00     0.174 HD
ATOM    674  H22   G A  32     -20.029   9.525  28.282  1.00  0.00     0.174 HD
ATOM    675  C6    G A  32     -16.741   7.502  28.562  1.00  0.00     0.292 A 
ATOM    676  H1    G A  32     -17.846   9.210  28.274  1.00  0.00     0.187 HD
ATOM    677  O6    G A  32     -15.658   8.079  28.419  1.00  0.00    -0.265 OA
ATOM    678  N7    G A  32     -16.100   5.074  28.999  1.00  0.00    -0.234 NA
ATOM    679  P     T A  33     -19.991   0.729  25.643  1.00  0.00     0.408 P 
ATOM    680  OP1   T A  33     -20.533  -0.548  25.113  1.00  0.00    -0.624 OA
ATOM    681  O5'   T A  33     -21.067   1.872  25.367  1.00  0.00    -0.287 OA
ATOM    682  OP2   T A  33     -18.663   1.208  25.181  1.00  0.00    -0.624 OA
ATOM    683  C5'   T A  33     -20.769   2.976  24.514  1.00  0.00     0.216 C 
ATOM    684  C4'   T A  33     -21.739   4.104  24.767  1.00  0.00     0.180 C 
ATOM    685  C3'   T A  33     -21.886   5.103  23.626  1.00  0.00     0.198 C 
ATOM    686  O4'   T A  33     -21.259   4.888  25.894  1.00  0.00    -0.353 OA
ATOM    687  O3'   T A  33     -22.886   4.692  22.696  1.00  0.00    -0.279 OA
ATOM    688  C2'   T A  33     -22.264   6.385  24.356  1.00  0.00     0.199 C 
ATOM    689  P     T A  34     -22.485   4.399  21.165  1.00  0.00     0.408 P 
ATOM    690  OP1   T A  34     -23.464   3.418  20.633  1.00  0.00    -0.624 OA
ATOM    691  O5'   T A  34     -22.730   5.791  20.430  1.00  0.00    -0.287 OA
ATOM    692  OP2   T A  34     -21.032   4.092  21.102  1.00  0.00    -0.624 OA
ATOM    693  C5'   T A  34     -24.038   6.349  20.329  1.00  0.00     0.216 C 
ATOM    694  C4'   T A  34     -23.966   7.858  20.347  1.00  0.00     0.180 C 
ATOM    695  O4'   T A  34     -23.240   8.281  21.534  1.00  0.00    -0.353 OA
ATOM    696  C3'   T A  34     -23.209   8.490  19.187  1.00  0.00     0.198 C 
ATOM    697  C1'   T A  34     -22.405   9.381  21.217  1.00  0.00     0.264 C 
ATOM    698  C2'   T A  34     -22.727   9.806  19.785  1.00  0.00     0.199 C 
ATOM    699  N1    T A  34     -21.006   8.972  21.412  1.00  0.00    -0.280 N 
ATOM    700  C6    T A  34     -20.655   7.645  21.493  1.00  0.00     0.104 A 
ATOM    701  C2    T A  34     -20.050   9.968  21.509  1.00  0.00     0.331 A 
ATOM    702  C5    T A  34     -19.391   7.247  21.669  1.00  0.00     0.092 A 
ATOM    703  C4    T A  34     -18.346   8.217  21.777  1.00  0.00     0.250 A 
ATOM    704  O4    T A  34     -17.151   7.975  21.936  1.00  0.00    -0.268 OA
ATOM    705  N3    T A  34     -18.766   9.523  21.687  1.00  0.00    -0.275 N 
ATOM    706  H3    T A  34     -18.053  10.233  21.755  1.00  0.00     0.173 HD
ATOM    707  O2    T A  34     -20.319  11.154  21.441  1.00  0.00    -0.246 OA
ATOM    708  C1'   T A  33     -21.404   6.269  25.614  1.00  0.00     0.264 C 
ATOM    709  O2'   T A  33     -23.627   6.377  24.735  1.00  0.00    -0.388 OA
ATOM    710  N1    T A  33     -20.063   6.858  25.475  1.00  0.00    -0.280 N 
ATOM    711  C6    T A  33     -18.928   6.083  25.570  1.00  0.00     0.104 A 
ATOM    712  C2    T A  33     -19.978   8.219  25.243  1.00  0.00     0.331 A 
ATOM    713  C5    T A  33     -17.700   6.596  25.444  1.00  0.00     0.092 A 
ATOM    714  C4    T A  33     -17.530   7.994  25.203  1.00  0.00     0.250 A 
ATOM    715  O4    T A  33     -16.457   8.582  25.080  1.00  0.00    -0.268 OA
ATOM    716  N3    T A  33     -18.703   8.707  25.118  1.00  0.00    -0.275 N 
ATOM    717  H3    T A  33     -18.618   9.695  24.940  1.00  0.00     0.173 HD
ATOM    718  O2    T A  33     -20.955   8.938  25.155  1.00  0.00    -0.246 OA
ATOM    719 'HO2   T A  33     -24.110   5.960  24.021  1.00  0.00     0.210 HD
ATOM    720  C1'   G A  31     -14.313   1.669  32.533  1.00  0.00     0.262 C 
ATOM    721  O2'   G A  31     -16.238   0.272  32.265  1.00  0.00    -0.388 OA
ATOM    722  N9    G A  31     -13.749   2.934  32.073  1.00  0.00    -0.293 N 
ATOM    723  C4    G A  31     -14.416   4.130  31.946  1.00  0.00     0.187 A 
ATOM    724  C8    G A  31     -12.454   3.172  31.679  1.00  0.00     0.214 A 
ATOM    725  N3    G A  31     -15.717   4.345  32.229  1.00  0.00    -0.044 NA
ATOM    726  C5    G A  31     -13.477   5.026  31.480  1.00  0.00     0.173 A 
ATOM    727  C2    G A  31     -16.069   5.598  32.005  1.00  0.00     0.703 A 
ATOM    728  N2    G A  31     -17.329   5.982  32.230  1.00  0.00    -0.233 N 
ATOM    729  N1    G A  31     -15.215   6.566  31.544  1.00  0.00    -0.153 N 
ATOM    730  H21   G A  31     -17.995   5.305  32.570  1.00  0.00     0.174 HD
ATOM    731  H22   G A  31     -17.612   6.935  32.063  1.00  0.00     0.174 HD
ATOM    732  C6    G A  31     -13.871   6.369  31.247  1.00  0.00     0.292 A 
ATOM    733  H1    G A  31     -15.579   7.495  31.403  1.00  0.00     0.187 HD
ATOM    734  O6    G A  31     -13.188   7.314  30.838  1.00  0.00    -0.265 OA
ATOM    735  N7    G A  31     -12.244   4.407  31.316  1.00  0.00    -0.234 NA
ATOM    736 'HO2   G A  31     -16.287  -0.579  31.831  1.00  0.00     0.210 HD
ATOM    737  O2'   G A  30      -6.644  -2.666  30.486  1.00  0.00    -0.388 OA
ATOM    738  C1'   G A  30      -6.559  -0.611  31.706  1.00  0.00     0.262 C 
ATOM    739 'HO2   G A  30      -7.552  -2.649  30.184  1.00  0.00     0.210 HD
ATOM    740  N9    G A  30      -5.205  -0.079  31.591  1.00  0.00    -0.293 N 
ATOM    741  C8    G A  30      -4.177  -0.218  32.492  1.00  0.00     0.214 A 
ATOM    742  C4    G A  30      -4.706   0.663  30.549  1.00  0.00     0.187 A 
ATOM    743  N7    G A  30      -3.076   0.368  32.111  1.00  0.00    -0.234 NA
ATOM    744  C5    G A  30      -3.396   0.930  30.883  1.00  0.00     0.173 A 
ATOM    745  C6    G A  30      -2.604   1.692  29.984  1.00  0.00     0.292 A 
ATOM    746  N1    G A  30      -3.326   2.062  28.855  1.00  0.00    -0.153 N 
ATOM    747  O6    G A  30      -1.423   2.034  30.096  1.00  0.00    -0.265 OA
ATOM    748  C2    G A  30      -4.638   1.743  28.619  1.00  0.00     0.703 A 
ATOM    749  H1    G A  30      -2.842   2.608  28.159  1.00  0.00     0.187 HD
ATOM    750  N2    G A  30      -5.158   2.193  27.474  1.00  0.00    -0.233 N 
ATOM    751  N3    G A  30      -5.386   1.035  29.444  1.00  0.00    -0.044 NA
ATOM    752  H21   G A  30      -6.121   1.983  27.256  1.00  0.00     0.174 HD
ATOM    753  H22   G A  30      -4.599   2.738  26.835  1.00  0.00     0.174 HD
ATOM    754  O2'   A A  29      -6.949   1.050  36.467  1.00  0.00    -0.388 OA
ATOM    755  C1'   A A  29      -4.770   2.027  36.614  1.00  0.00     0.262 C 
ATOM    756 'HO2   A A  29      -7.266   0.323  37.005  1.00  0.00     0.210 HD
ATOM    757  O4'   A A  29      -4.330   1.831  37.947  1.00  0.00    -0.353 OA
BRANCH 698 758
ATOM    758  O2'   T A  34     -23.767  10.766  19.818  1.00  0.00    -0.388 OA
ATOM    759 'HO2   T A  34     -24.478  10.387  20.336  1.00  0.00     0.210 HD
ENDBRANCH 698 758
BRANCH 696 760
ATOM    760  O3'   T A  34     -24.056   8.684  18.055  1.00  0.00    -0.279 OA
BRANCH 760 761
ATOM    761  P     C A  35     -25.656   8.674  18.236  1.00  0.00     0.408 P 
ATOM    762  OP1   C A  35     -26.105   7.266  18.084  1.00  0.00    -0.624 OA
ATOM    763  OP2   C A  35     -26.253   9.729  17.378  1.00  0.00    -0.624 OA
BRANCH 761 764
ATOM    764  O5'   C A  35     -25.873   9.099  19.757  1.00  0.00    -0.287 OA
BRANCH 764 765
ATOM    765  C5'   C A  35     -27.051   9.790  20.168  1.00  0.00     0.216 C 
BRANCH 765 766
ATOM    766  C4'   C A  35     -27.564   9.218  21.469  1.00  0.00     0.180 C 
ATOM    767  O4'   C A  35     -26.427   8.823  22.285  1.00  0.00    -0.353 OA
ATOM    768  C1'   C A  35     -26.652   9.192  23.635  1.00  0.00     0.264 C 
ATOM    769  N1    C A  35     -25.672  10.228  24.004  1.00  0.00    -0.278 N 
ATOM    770  C2'   C A  35     -28.105   9.650  23.745  1.00  0.00     0.199 C 
ATOM    771  C6    C A  35     -25.104  11.027  23.050  1.00  0.00     0.102 A 
ATOM    772  C2    C A  35     -25.330  10.385  25.349  1.00  0.00     0.352 A 
ATOM    773  C5    C A  35     -24.213  11.970  23.379  1.00  0.00     0.067 A 
ATOM    774  C4    C A  35     -23.882  12.106  24.759  1.00  0.00     0.128 A 
ATOM    775  N4    C A  35     -23.000  13.025  25.150  1.00  0.00    -0.384 N 
ATOM    776  N3    C A  35     -24.431  11.332  25.696  1.00  0.00    -0.177 NA
ATOM    777  H41   C A  35     -22.562  13.632  24.473  1.00  0.00     0.157 HD
ATOM    778  H42   C A  35     -22.775  13.109  26.131  1.00  0.00     0.157 HD
ATOM    779  O2    C A  35     -25.860   9.650  26.194  1.00  0.00    -0.244 OA
ATOM    780  C3'   C A  35     -28.353  10.187  22.341  1.00  0.00     0.198 C 
ATOM    781  O2'   C A  35     -28.918   8.524  24.015  1.00  0.00    -0.388 OA
ATOM    782  O3'   C A  35     -29.737  10.191  22.000  1.00  0.00    -0.279 OA
ATOM    783  P     A A  36     -30.471  11.578  21.650  1.00  0.00     0.408 P 
ATOM    784  OP2   A A  36     -29.875  12.115  20.400  1.00  0.00    -0.624 OA
ATOM    785  O5'   A A  36     -30.066  12.546  22.850  1.00  0.00    -0.287 OA
ATOM    786  OP1   A A  36     -31.934  11.329  21.716  1.00  0.00    -0.624 OA
ATOM    787  C5'   A A  36     -31.056  13.154  23.680  1.00  0.00     0.216 C 
ATOM    788  C4'   A A  36     -31.253  12.344  24.943  1.00  0.00     0.180 C 
ATOM    789  C3'   A A  36     -31.375  13.165  26.225  1.00  0.00     0.198 C 
ATOM    790  O4'   A A  36     -30.091  11.487  25.135  1.00  0.00    -0.353 OA
ATOM    791  O3'   A A  36     -32.738  13.431  26.548  1.00  0.00    -0.279 OA
ATOM    792  C2'   A A  36     -30.700  12.281  27.265  1.00  0.00     0.199 C 
ATOM    793  P     A A  37     -33.288  14.941  26.520  1.00  0.00     0.408 P 
ATOM    794  OP2   A A  37     -32.546  15.696  25.479  1.00  0.00    -0.624 OA
ATOM    795  OP1   A A  37     -34.771  14.863  26.450  1.00  0.00    -0.624 OA
ATOM    796  O5'   A A  37     -32.886  15.528  27.946  1.00  0.00    -0.287 OA
ATOM    797  O2'   A A  36     -31.562  11.246  27.698  1.00  0.00    -0.388 OA
ATOM    798  C1'   A A  36     -29.574  11.670  26.438  1.00  0.00     0.262 C 
ATOM    799 'HO2   A A  36     -32.445  11.491  27.419  1.00  0.00     0.210 HD
ATOM    800  N9    A A  36     -28.380  12.509  26.345  1.00  0.00    -0.294 N 
ATOM    801  C8    A A  36     -27.726  12.920  25.210  1.00  0.00     0.214 A 
ATOM    802  C4    A A  36     -27.682  13.053  27.396  1.00  0.00     0.167 A 
ATOM    803  N7    A A  36     -26.679  13.672  25.446  1.00  0.00    -0.236 NA
ATOM    804  C5    A A  36     -26.641  13.764  26.831  1.00  0.00     0.149 A 
ATOM    805  C6    A A  36     -25.769  14.425  27.711  1.00  0.00     0.155 A 
ATOM    806  N6    A A  36     -24.723  15.150  27.312  1.00  0.00    -0.382 N 
ATOM    807  N1    A A  36     -26.010  14.317  29.035  1.00  0.00    -0.222 NA
ATOM    808  H62   A A  36     -24.136  15.601  27.999  1.00  0.00     0.157 HD
ATOM    809  H61   A A  36     -24.525  15.245  26.327  1.00  0.00     0.157 HD
ATOM    810  C2    A A  36     -27.060  13.590  29.437  1.00  0.00     0.237 A 
ATOM    811  N3    A A  36     -27.952  12.923  28.707  1.00  0.00    -0.222 NA
ATOM    812 'HO2   C A  35     -29.826   8.810  23.912  1.00  0.00     0.210 HD
BRANCH 796 813
ATOM    813  C5'   A A  37     -33.774  15.427  29.059  1.00  0.00     0.216 C 
BRANCH 813 814
ATOM    814  C4'   A A  37     -33.548  16.576  30.016  1.00  0.00     0.180 C 
ATOM    815  O4'   A A  37     -32.471  16.237  30.928  1.00  0.00    -0.353 OA
ATOM    816  C1'   A A  37     -31.763  17.412  31.282  1.00  0.00     0.262 C 
ATOM    817  C2'   A A  37     -32.406  18.589  30.545  1.00  0.00     0.199 C 
ATOM    818  C3'   A A  37     -33.092  17.881  29.381  1.00  0.00     0.198 C 
BRANCH 816 819
ATOM    819  N9    A A  37     -30.352  17.219  30.950  1.00  0.00    -0.294 N 
ATOM    820  C8    A A  37     -29.779  17.124  29.707  1.00  0.00     0.214 A 
ATOM    821  N7    A A  37     -28.478  16.957  29.736  1.00  0.00    -0.236 NA
ATOM    822  C5    A A  37     -28.176  16.940  31.091  1.00  0.00     0.149 A 
ATOM    823  C6    A A  37     -26.963  16.796  31.789  1.00  0.00     0.155 A 
ATOM    824  C4    A A  37     -29.321  17.099  31.850  1.00  0.00     0.167 A 
ATOM    825  N6    A A  37     -25.780  16.638  31.195  1.00  0.00    -0.382 N 
ATOM    826  N1    A A  37     -27.009  16.822  33.138  1.00  0.00    -0.222 NA
ATOM    827  H61   A A  37     -25.724  16.616  30.187  1.00  0.00     0.157 HD
ATOM    828  H62   A A  37     -24.949  16.546  31.759  1.00  0.00     0.157 HD
ATOM    829  C2    A A  37     -28.196  16.984  33.736  1.00  0.00     0.237 A 
ATOM    830  N3    A A  37     -29.401  17.131  33.191  1.00  0.00    -0.222 NA
ENDBRANCH 816 819
BRANCH 817 831
ATOM    831  O2'   A A  37     -33.350  19.198  31.407  1.00  0.00    -0.388 OA
ATOM    832 'HO2   A A  37     -32.987  20.044  31.671  1.00  0.00     0.210 HD
ENDBRANCH 817 831
BRANCH 818 833
ATOM    833  O3'   A A  37     -34.196  18.619  28.861  1.00  0.00    -0.279 OA
BRANCH 833 834
ATOM    834  P     A A  38     -34.284  18.927  27.284  1.00  0.00     0.408 P 
ATOM    835  OP1   A A  38     -35.343  18.052  26.721  1.00  0.00    -0.624 OA
ATOM    836  OP2   A A  38     -32.909  18.867  26.725  1.00  0.00    -0.624 OA
BRANCH 834 837
ATOM    837  O5'   A A  38     -34.791  20.436  27.206  1.00  0.00    -0.287 OA
BRANCH 837 838
ATOM    838  C5'   A A  38     -33.890  21.501  26.899  1.00  0.00     0.216 C 
BRANCH 838 839
ATOM    839  C4'   A A  38     -34.096  22.652  27.857  1.00  0.00     0.180 C 
ATOM    840  C3'   A A  38     -33.072  23.780  27.741  1.00  0.00     0.198 C 
ATOM    841  C2'   A A  38     -33.008  24.336  29.161  1.00  0.00     0.199 C 
ATOM    842  O2'   A A  38     -34.077  25.215  29.448  1.00  0.00    -0.388 OA
ATOM    843  C1'   A A  38     -33.197  23.065  29.989  1.00  0.00     0.262 C 
ATOM    844 'HO2   A A  38     -34.892  24.715  29.387  1.00  0.00     0.210 HD
ATOM    845  O4'   A A  38     -33.953  22.154  29.215  1.00  0.00    -0.353 OA
BRANCH 840 846
ATOM    846  O3'   A A  38     -33.410  24.790  26.778  1.00  0.00    -0.279 OA
ATOM    847  P     T A  39     -32.308  25.854  26.267  1.00  0.00     0.408 P 
ATOM    848  OP2   T A  39     -32.557  27.132  26.983  1.00  0.00    -0.624 OA
ATOM    849  OP1   T A  39     -30.953  25.249  26.303  1.00  0.00    -0.624 OA
ATOM    850  O5'   T A  39     -32.678  26.074  24.733  1.00  0.00    -0.287 OA
ATOM    851  C5'   T A  39     -33.369  25.068  23.991  1.00  0.00     0.216 C 
ATOM    852  C4'   T A  39     -32.845  25.012  22.575  1.00  0.00     0.180 C 
ATOM    853  O4'   T A  39     -33.386  26.145  21.834  1.00  0.00    -0.353 OA
ATOM    854  C3'   T A  39     -31.328  25.115  22.432  1.00  0.00     0.198 C 
ATOM    855  C1'   T A  39     -32.328  26.933  21.332  1.00  0.00     0.264 C 
ATOM    856  C2'   T A  39     -31.110  26.604  22.188  1.00  0.00     0.199 C 
ATOM    857  N1    T A  39     -32.733  28.347  21.362  1.00  0.00    -0.280 N 
ATOM    858  O2'   T A  39     -29.942  26.843  21.422  1.00  0.00    -0.388 OA
ATOM    859 'HO2   T A  39     -29.277  26.225  21.727  1.00  0.00     0.210 HD
ATOM    860  C2    T A  39     -33.376  28.825  22.493  1.00  0.00     0.331 A 
ATOM    861  C6    T A  39     -32.479  29.172  20.290  1.00  0.00     0.104 A 
ATOM    862  N3    T A  39     -33.726  30.151  22.443  1.00  0.00    -0.275 N 
ATOM    863  O2    T A  39     -33.618  28.136  23.465  1.00  0.00    -0.246 OA
ATOM    864  H3    T A  39     -34.196  30.519  23.255  1.00  0.00     0.173 HD
ATOM    865  C4    T A  39     -33.506  31.028  21.408  1.00  0.00     0.250 A 
ATOM    866  O4    T A  39     -33.890  32.192  21.511  1.00  0.00    -0.268 OA
ATOM    867  C5    T A  39     -32.835  30.461  20.280  1.00  0.00     0.092 A 
ATOM    868  O3'   T A  39     -30.864  24.309  21.351  1.00  0.00    -0.279 OA
ATOM    869  P     C A  40     -29.404  23.636  21.416  1.00  0.00     0.408 P 
ATOM    870  OP2   C A  40     -29.559  22.168  21.242  1.00  0.00    -0.624 OA
ATOM    871  O5'   C A  40     -28.901  23.907  22.904  1.00  0.00    -0.287 OA
ATOM    872  OP1   C A  40     -28.526  24.397  20.491  1.00  0.00    -0.624 OA
ATOM    873  C5'   C A  40     -27.721  23.275  23.403  1.00  0.00     0.216 C 
ATOM    874  C4'   C A  40     -27.479  23.675  24.840  1.00  0.00     0.180 C 
ATOM    875  O4'   C A  40     -28.679  23.382  25.609  1.00  0.00    -0.353 OA
ATOM    876  C3'   C A  40     -26.344  22.917  25.527  1.00  0.00     0.198 C 
ATOM    877  C1'   C A  40     -28.356  22.534  26.693  1.00  0.00     0.264 C 
ATOM    878  N1    C A  40     -28.757  21.160  26.339  1.00  0.00    -0.278 N 
ATOM    879  C2'   C A  40     -26.863  22.719  26.948  1.00  0.00     0.199 C 
ATOM    880  C6    C A  40     -29.537  20.922  25.241  1.00  0.00     0.102 A 
ATOM    881  C2    C A  40     -28.330  20.098  27.144  1.00  0.00     0.352 A 
ATOM    882  C5    C A  40     -29.906  19.678  24.912  1.00  0.00     0.067 A 
ATOM    883  C4    C A  40     -29.457  18.616  25.749  1.00  0.00     0.128 A 
ATOM    884  N3    C A  40     -28.696  18.836  26.822  1.00  0.00    -0.177 NA
ATOM    885  N4    C A  40     -29.792  17.357  25.474  1.00  0.00    -0.384 N 
ATOM    886  H41   C A  40     -30.366  17.146  24.670  1.00  0.00     0.157 HD
ATOM    887  H42   C A  40     -29.468  16.613  26.075  1.00  0.00     0.157 HD
ATOM    888  O2    C A  40     -27.625  20.338  28.135  1.00  0.00    -0.244 OA
ATOM    889  O2'   C A  40     -26.677  23.884  27.731  1.00  0.00    -0.388 OA
ATOM    890 'HO2   C A  40     -26.053  24.437  27.261  1.00  0.00     0.210 HD
ATOM    891  O3'   C A  40     -25.129  23.663  25.498  1.00  0.00    -0.279 OA
ATOM    892  P     C A  41     -23.913  23.173  24.566  1.00  0.00     0.408 P 
ATOM    893  O5'   C A  41     -23.569  21.717  25.114  1.00  0.00    -0.287 OA
ATOM    894  OP2   C A  41     -24.419  23.034  23.177  1.00  0.00    -0.624 OA
ATOM    895  OP1   C A  41     -22.753  24.060  24.840  1.00  0.00    -0.624 OA
ATOM    896  C5'   C A  41     -23.068  21.528  26.436  1.00  0.00     0.216 C 
ATOM    897  C4'   C A  41     -22.672  20.084  26.640  1.00  0.00     0.180 C 
ATOM    898  O4'   C A  41     -23.879  19.276  26.734  1.00  0.00    -0.353 OA
ATOM    899  C3'   C A  41     -21.875  19.458  25.503  1.00  0.00     0.198 C 
ATOM    900  C1'   C A  41     -23.704  18.069  26.012  1.00  0.00     0.264 C 
ATOM    901  N1    C A  41     -24.613  18.080  24.854  1.00  0.00    -0.278 N 
ATOM    902  C2'   C A  41     -22.228  17.982  25.630  1.00  0.00     0.199 C 
ATOM    903  C2    C A  41     -24.821  16.891  24.151  1.00  0.00     0.352 A 
ATOM    904  C6    C A  41     -25.243  19.230  24.465  1.00  0.00     0.102 A 
ATOM    905  N3    C A  41     -25.648  16.890  23.082  1.00  0.00    -0.177 NA
ATOM    906  O2    C A  41     -24.239  15.864  24.525  1.00  0.00    -0.244 OA
ATOM    907  C4    C A  41     -26.257  18.017  22.710  1.00  0.00     0.128 A 
ATOM    908  N4    C A  41     -27.062  17.965  21.650  1.00  0.00    -0.384 N 
ATOM    909  C5    C A  41     -26.065  19.244  23.408  1.00  0.00     0.067 A 
ATOM    910  H41   C A  41     -27.543  18.796  21.334  1.00  0.00     0.157 HD
ATOM    911  H42   C A  41     -27.193  17.089  21.162  1.00  0.00     0.157 HD
ATOM    912  O2'   C A  41     -21.517  17.374  26.692  1.00  0.00    -0.388 OA
ATOM    913 'HO2   C A  41     -20.777  17.947  26.895  1.00  0.00     0.210 HD
ATOM    914  O3'   C A  41     -20.478  19.699  25.643  1.00  0.00    -0.279 OA
ATOM    915  P     C A  42     -19.524  19.651  24.350  1.00  0.00     0.408 P 
ATOM    916  OP2   C A  42     -20.152  20.458  23.273  1.00  0.00    -0.624 OA
ATOM    917  O5'   C A  42     -19.555  18.121  23.905  1.00  0.00    -0.287 OA
ATOM    918  OP1   C A  42     -18.147  19.976  24.802  1.00  0.00    -0.624 OA
ATOM    919  C5'   C A  42     -19.020  17.100  24.747  1.00  0.00     0.216 C 
ATOM    920  C4'   C A  42     -19.027  15.771  24.026  1.00  0.00     0.180 C 
ATOM    921  O4'   C A  42     -20.398  15.306  23.905  1.00  0.00    -0.353 OA
ATOM    922  C3'   C A  42     -18.510  15.801  22.595  1.00  0.00     0.198 C 
ATOM    923  C1'   C A  42     -20.575  14.658  22.657  1.00  0.00     0.264 C 
ATOM    924  C2'   C A  42     -19.211  14.603  21.967  1.00  0.00     0.199 C 
BRANCH 923 925
ATOM    925  N1    C A  42     -21.597  15.392  21.893  1.00  0.00    -0.278 N 
ATOM    926  C6    C A  42     -21.743  16.745  22.036  1.00  0.00     0.102 A 
ATOM    927  C5    C A  42     -22.677  17.415  21.349  1.00  0.00     0.067 A 
ATOM    928  C4    C A  42     -23.504  16.665  20.464  1.00  0.00     0.128 A 
ATOM    929  N3    C A  42     -23.366  15.347  20.314  1.00  0.00    -0.177 NA
ATOM    930  N4    C A  42     -24.452  17.274  19.754  1.00  0.00    -0.384 N 
ATOM    931  C2    C A  42     -22.421  14.684  21.016  1.00  0.00     0.352 A 
ATOM    932  O2    C A  42     -22.267  13.459  20.902  1.00  0.00    -0.244 OA
ATOM    933  H42   C A  42     -25.033  16.730  19.132  1.00  0.00     0.157 HD
ATOM    934  H41   C A  42     -24.591  18.270  19.837  1.00  0.00     0.157 HD
ENDBRANCH 923 925
BRANCH 924 935
ATOM    935  O2'   C A  42     -18.571  13.392  22.324  1.00  0.00    -0.388 OA
ATOM    936 'HO2   C A  42     -18.252  13.505  23.219  1.00  0.00     0.210 HD
ENDBRANCH 924 935
BRANCH 922 937
ATOM    937  O3'   C A  42     -17.090  15.686  22.549  1.00  0.00    -0.279 OA
BRANCH 937 938
ATOM    938  P     G A  43     -16.226  16.768  21.732  1.00  0.00     0.408 P 
ATOM    939  OP2   G A  43     -16.936  18.071  21.777  1.00  0.00    -0.624 OA
ATOM    940  OP1   G A  43     -14.828  16.678  22.224  1.00  0.00    -0.624 OA
BRANCH 938 941
ATOM    941  O5'   G A  43     -16.256  16.235  20.230  1.00  0.00    -0.287 OA
BRANCH 941 942
ATOM    942  C5'   G A  43     -15.050  15.914  19.539  1.00  0.00     0.216 C 
BRANCH 942 943
ATOM    943  C4'   G A  43     -15.291  15.901  18.047  1.00  0.00     0.180 C 
ATOM    944  O4'   G A  43     -15.902  14.634  17.685  1.00  0.00    -0.353 OA
ATOM    945  C1'   G A  43     -16.864  14.839  16.666  1.00  0.00     0.262 C 
ATOM    946  C2'   G A  43     -16.824  16.315  16.269  1.00  0.00     0.199 C 
ATOM    947  C3'   G A  43     -16.259  16.958  17.532  1.00  0.00     0.198 C 
ATOM    948  O2'   G A  43     -15.936  16.467  15.177  1.00  0.00    -0.388 OA
ATOM    949  O3'   G A  43     -15.592  18.187  17.252  1.00  0.00    -0.279 OA
ATOM    950  P     G A  44     -15.723  19.424  18.273  1.00  0.00     0.408 P 
ATOM    951  OP2   G A  44     -17.135  19.520  18.727  1.00  0.00    -0.624 OA
ATOM    952  O5'   G A  44     -15.402  20.701  17.375  1.00  0.00    -0.287 OA
ATOM    953  OP1   G A  44     -14.638  19.287  19.277  1.00  0.00    -0.624 OA
ATOM    954  C5'   G A  44     -14.849  20.559  16.066  1.00  0.00     0.216 C 
ATOM    955  C4'   G A  44     -14.993  21.850  15.294  1.00  0.00     0.180 C 
ATOM    956  C3'   G A  44     -14.170  23.020  15.830  1.00  0.00     0.198 C 
ATOM    957  O4'   G A  44     -16.385  22.274  15.354  1.00  0.00    -0.353 OA
ATOM    958  C2'   G A  44     -15.185  23.840  16.621  1.00  0.00     0.199 C 
ATOM    959  C1'   G A  44     -16.453  23.607  15.807  1.00  0.00     0.262 C 
ATOM    960  N9    G A  44     -17.695  23.778  16.555  1.00  0.00    -0.293 N 
ATOM    961  C4    G A  44     -17.830  23.841  17.923  1.00  0.00     0.187 A 
ATOM    962  C8    G A  44     -18.960  23.912  16.037  1.00  0.00     0.214 A 
ATOM    963  N3    G A  44     -16.829  23.751  18.824  1.00  0.00    -0.044 NA
ATOM    964  C5    G A  44     -19.179  24.013  18.149  1.00  0.00     0.173 A 
ATOM    965  C2    G A  44     -17.272  23.850  20.064  1.00  0.00     0.703 A 
ATOM    966  N1    G A  44     -18.590  24.023  20.398  1.00  0.00    -0.153 N 
ATOM    967  N2    G A  44     -16.410  23.783  21.081  1.00  0.00    -0.233 N 
ATOM    968  C6    G A  44     -19.638  24.117  19.489  1.00  0.00     0.292 A 
ATOM    969  H1    G A  44     -18.823  24.087  21.376  1.00  0.00     0.187 HD
ATOM    970  O6    G A  44     -20.795  24.271  19.900  1.00  0.00    -0.265 OA
ATOM    971  H22   G A  44     -16.732  23.857  22.034  1.00  0.00     0.174 HD
ATOM    972  H21   G A  44     -15.427  23.656  20.883  1.00  0.00     0.174 HD
ATOM    973  N7    G A  44     -19.880  24.055  16.951  1.00  0.00    -0.234 NA
ATOM    974 'HO2   G A  43     -15.391  17.231  15.368  1.00  0.00     0.210 HD
BRANCH 945 975
ATOM    975  N9    G A  43     -18.164  14.404  17.167  1.00  0.00    -0.293 N 
ATOM    976  C4    G A  43     -19.334  14.337  16.450  1.00  0.00     0.187 A 
ATOM    977  N3    G A  43     -19.487  14.664  15.150  1.00  0.00    -0.044 NA
ATOM    978  C5    G A  43     -20.282  13.874  17.338  1.00  0.00     0.173 A 
ATOM    979  C2    G A  43     -20.732  14.494  14.743  1.00  0.00     0.703 A 
ATOM    980  N2    G A  43     -21.059  14.773  13.479  1.00  0.00    -0.233 N 
ATOM    981  N1    G A  43     -21.747  14.039  15.544  1.00  0.00    -0.153 N 
ATOM    982  H22   G A  43     -22.003  14.638  13.149  1.00  0.00     0.174 HD
ATOM    983  H21   G A  43     -20.341  15.113  12.854  1.00  0.00     0.174 HD
ATOM    984  C6    G A  43     -21.614  13.696  16.884  1.00  0.00     0.292 A 
ATOM    985  H1    G A  43     -22.664  13.945  15.135  1.00  0.00     0.187 HD
ATOM    986  O6    G A  43     -22.598  13.293  17.515  1.00  0.00    -0.265 OA
ATOM    987  N7    G A  43     -19.718  13.654  18.589  1.00  0.00    -0.234 NA
ATOM    988  C8    G A  43     -18.465  13.983  18.439  1.00  0.00     0.214 A 
ENDBRANCH 945 975
BRANCH 956 989
ATOM    989  O3'   G A  44     -13.583  23.773  14.771  1.00  0.00    -0.279 OA
BRANCH 989 990
ATOM    990  P     A A  45     -12.045  23.524  14.369  1.00  0.00     0.408 P 
ATOM    991  O5'   A A  45     -11.531  24.958  13.903  1.00  0.00    -0.287 OA
ATOM    992  C5'   A A  45     -10.208  25.138  13.397  1.00  0.00     0.216 C 
ATOM    993  C4'   A A  45      -9.669  26.489  13.812  1.00  0.00     0.180 C 
ATOM    994  O4'   A A  45      -9.673  27.366  12.650  1.00  0.00    -0.353 OA
ATOM    995  C3'   A A  45     -10.486  27.222  14.872  1.00  0.00     0.198 C 
ATOM    996  C1'   A A  45     -10.290  28.595  12.982  1.00  0.00     0.262 C 
ATOM    997  C2'   A A  45     -10.275  28.684  14.504  1.00  0.00     0.199 C 
ATOM    998  N9    A A  45     -11.632  28.608  12.401  1.00  0.00    -0.294 N 
ATOM    999  O2'   A A  45      -9.001  29.142  14.921  1.00  0.00    -0.388 OA
ATOM   1000 'HO2   A A  45      -8.690  28.527  15.588  1.00  0.00     0.210 HD
ATOM   1001  C4    A A  45     -12.448  29.703  12.240  1.00  0.00     0.167 A 
ATOM   1002  C8    A A  45     -12.338  27.540  11.908  1.00  0.00     0.214 A 
ATOM   1003  C5    A A  45     -13.606  29.226  11.656  1.00  0.00     0.149 A 
ATOM   1004  N3    A A  45     -12.181  30.977  12.578  1.00  0.00    -0.222 NA
ATOM   1005  N7    A A  45     -13.525  27.856  11.450  1.00  0.00    -0.236 NA
ATOM   1006  C6    A A  45     -14.616  30.164  11.384  1.00  0.00     0.155 A 
ATOM   1007  N6    A A  45     -15.788  29.849  10.830  1.00  0.00    -0.382 N 
ATOM   1008  N1    A A  45     -14.380  31.453  11.707  1.00  0.00    -0.222 NA
ATOM   1009  H62   A A  45     -16.483  30.562  10.653  1.00  0.00     0.157 HD
ATOM   1010  H61   A A  45     -15.982  28.888  10.585  1.00  0.00     0.157 HD
ATOM   1011  C2    A A  45     -13.207  31.768  12.271  1.00  0.00     0.237 A 
ATOM   1012  O3'   A A  45     -10.029  26.914  16.186  1.00  0.00    -0.279 OA
ATOM   1013  OP1   A A  45     -12.026  22.624  13.187  1.00  0.00    -0.624 OA
ATOM   1014  OP2   A A  45     -11.303  23.138  15.595  1.00  0.00    -0.624 OA
BRANCH 1012 1015
ATOM   1015  P     C A  46     -11.083  26.826  17.398  1.00  0.00     0.408 P 
ATOM   1016  OP1   C A  46     -12.382  26.388  16.828  1.00  0.00    -0.624 OA
ATOM   1017  OP2   C A  46     -11.013  28.086  18.180  1.00  0.00    -0.624 OA
BRANCH 1015 1018
ATOM   1018  O5'   C A  46     -10.520  25.646  18.309  1.00  0.00    -0.287 OA
BRANCH 1018 1019
ATOM   1019  C5'   C A  46      -9.181  25.178  18.156  1.00  0.00     0.216 C 
BRANCH 1019 1020
ATOM   1020  C4'   C A  46      -8.568  24.901  19.509  1.00  0.00     0.180 C 
ATOM   1021  O4'   C A  46      -9.622  24.577  20.458  1.00  0.00    -0.353 OA
ATOM   1022  C1'   C A  46      -9.159  23.587  21.363  1.00  0.00     0.264 C 
ATOM   1023  C2'   C A  46      -7.682  23.346  21.054  1.00  0.00     0.199 C 
ATOM   1024  C3'   C A  46      -7.634  23.702  19.576  1.00  0.00     0.198 C 
BRANCH 1022 1025
ATOM   1025  N1    C A  46      -9.999  22.386  21.214  1.00  0.00    -0.278 N 
ATOM   1026  C6    C A  46     -10.558  22.065  20.007  1.00  0.00     0.102 A 
ATOM   1027  C5    C A  46     -11.326  20.977  19.869  1.00  0.00     0.067 A 
ATOM   1028  C4    C A  46     -11.533  20.169  21.024  1.00  0.00     0.128 A 
ATOM   1029  N3    C A  46     -10.988  20.471  22.204  1.00  0.00    -0.177 NA
ATOM   1030  N4    C A  46     -12.289  19.075  20.951  1.00  0.00    -0.384 N 
ATOM   1031  C2    C A  46     -10.218  21.573  22.330  1.00  0.00     0.352 A 
ATOM   1032  O2    C A  46      -9.699  21.884  23.412  1.00  0.00    -0.244 OA
ATOM   1033  H42   C A  46     -12.427  18.505  21.774  1.00  0.00     0.157 HD
ATOM   1034  H41   C A  46     -12.720  18.812  20.076  1.00  0.00     0.157 HD
ENDBRANCH 1022 1025
BRANCH 1023 1035
ATOM   1035  O2'   C A  46      -6.905  24.245  21.822  1.00  0.00    -0.388 OA
ATOM   1036 'HO2   C A  46      -6.363  24.736  21.205  1.00  0.00     0.210 HD
ENDBRANCH 1023 1035
BRANCH 1024 1037
ATOM   1037  O3'   C A  46      -6.320  24.027  19.131  1.00  0.00    -0.279 OA
BRANCH 1037 1038
ATOM   1038  P     G A  47      -5.727  23.321  17.814  1.00  0.00     0.408 P 
ATOM   1039  OP2   G A  47      -6.852  22.728  17.046  1.00  0.00    -0.624 OA
ATOM   1040  OP1   G A  47      -4.828  24.303  17.155  1.00  0.00    -0.624 OA
BRANCH 1038 1041
ATOM   1041  O5'   G A  47      -4.829  22.133  18.383  1.00  0.00    -0.287 OA
BRANCH 1041 1042
ATOM   1042  C5'   G A  47      -3.826  21.523  17.574  1.00  0.00     0.216 C 
BRANCH 1042 1043
ATOM   1043  C4'   G A  47      -3.827  20.025  17.775  1.00  0.00     0.180 C 
ATOM   1044  O4'   G A  47      -2.828  19.665  18.766  1.00  0.00    -0.353 OA
ATOM   1045  C1'   G A  47      -3.251  18.502  19.460  1.00  0.00     0.262 C 
ATOM   1046  C2'   G A  47      -4.612  18.098  18.891  1.00  0.00     0.199 C 
ATOM   1047  N9    G A  47      -3.289  18.799  20.889  1.00  0.00    -0.293 N 
ATOM   1048  O2'   G A  47      -4.407  17.158  17.851  1.00  0.00    -0.388 OA
ATOM   1049  C3'   G A  47      -5.106  19.430  18.342  1.00  0.00     0.198 C 
ATOM   1050 'HO2   G A  47      -4.928  17.457  17.106  1.00  0.00     0.210 HD
ATOM   1051  O3'   G A  47      -6.113  19.274  17.346  1.00  0.00    -0.279 OA
ATOM   1052  P     A A  48      -7.657  19.165  17.783  1.00  0.00     0.408 P 
ATOM   1053  OP1   A A  48      -8.454  18.993  16.542  1.00  0.00    -0.624 OA
ATOM   1054  O5'   A A  48      -7.730  17.802  18.608  1.00  0.00    -0.287 OA
ATOM   1055  OP2   A A  48      -7.968  20.287  18.704  1.00  0.00    -0.624 OA
ATOM   1056  C5'   A A  48      -7.448  16.553  17.983  1.00  0.00     0.216 C 
ATOM   1057  C4'   A A  48      -7.427  15.444  19.011  1.00  0.00     0.180 C 
ATOM   1058  O4'   A A  48      -6.415  15.716  20.012  1.00  0.00    -0.353 OA
ATOM   1059  C3'   A A  48      -8.688  15.279  19.842  1.00  0.00     0.198 C 
ATOM   1060  C1'   A A  48      -6.786  15.093  21.233  1.00  0.00     0.262 C 
ATOM   1061  N9    A A  48      -6.738  16.091  22.301  1.00  0.00    -0.294 N 
ATOM   1062  C2'   A A  48      -8.175  14.482  21.035  1.00  0.00     0.199 C 
ATOM   1063  C8    A A  48      -6.561  17.447  22.192  1.00  0.00     0.214 A 
ATOM   1064  C4    A A  48      -6.869  15.837  23.647  1.00  0.00     0.167 A 
ATOM   1065  N7    A A  48      -6.567  18.076  23.343  1.00  0.00    -0.236 NA
ATOM   1066  C5    A A  48      -6.762  17.064  24.274  1.00  0.00     0.149 A 
ATOM   1067  C6    A A  48      -6.864  17.075  25.677  1.00  0.00     0.155 A 
ATOM   1068  N6    A A  48      -6.778  18.179  26.419  1.00  0.00    -0.382 N 
ATOM   1069  N1    A A  48      -7.060  15.893  26.302  1.00  0.00    -0.222 NA
ATOM   1070  H61   A A  48      -6.631  19.073  25.972  1.00  0.00     0.157 HD
ATOM   1071  H62   A A  48      -6.862  18.125  27.424  1.00  0.00     0.157 HD
ATOM   1072  C2    A A  48      -7.143  14.782  25.557  1.00  0.00     0.237 A 
ATOM   1073  N3    A A  48      -7.061  14.645  24.235  1.00  0.00    -0.222 NA
ATOM   1074  O2'   A A  48      -8.022  13.113  20.708  1.00  0.00    -0.388 OA
ATOM   1075 'HO2   A A  48      -8.556  12.955  19.929  1.00  0.00     0.210 HD
ATOM   1076  O3'   A A  48      -9.715  14.597  19.127  1.00  0.00    -0.279 OA
ATOM   1077  P     G A  49     -11.249  14.749  19.590  1.00  0.00     0.408 P 
ATOM   1078  OP1   G A  49     -12.093  14.174  18.511  1.00  0.00    -0.624 OA
ATOM   1079  OP2   G A  49     -11.477  16.149  20.032  1.00  0.00    -0.624 OA
ATOM   1080  O5'   G A  49     -11.363  13.801  20.866  1.00  0.00    -0.287 OA
ATOM   1081  C5'   G A  49     -11.121  12.400  20.759  1.00  0.00     0.216 C 
ATOM   1082  C4'   G A  49     -11.345  11.725  22.092  1.00  0.00     0.180 C 
ATOM   1083  O4'   G A  49     -10.292  12.115  23.014  1.00  0.00    -0.353 OA
ATOM   1084  C3'   G A  49     -12.619  12.109  22.829  1.00  0.00     0.198 C 
ATOM   1085  C1'   G A  49     -10.810  12.149  24.336  1.00  0.00     0.262 C 
ATOM   1086  C2'   G A  49     -12.278  11.727  24.263  1.00  0.00     0.199 C 
ATOM   1087  N9    G A  49     -10.621  13.493  24.873  1.00  0.00    -0.293 N 
ATOM   1088  O2'   G A  49     -12.360  10.327  24.451  1.00  0.00    -0.388 OA
ATOM   1089 'HO2   G A  49     -12.891   9.985  23.731  1.00  0.00     0.210 HD
ATOM   1090  C8    G A  49     -10.379  14.646  24.168  1.00  0.00     0.214 A 
ATOM   1091  C4    G A  49     -10.658  13.851  26.198  1.00  0.00     0.187 A 
ATOM   1092  N7    G A  49     -10.260  15.700  24.929  1.00  0.00    -0.234 NA
ATOM   1093  C5    G A  49     -10.436  15.212  26.217  1.00  0.00     0.173 A 
ATOM   1094  C6    G A  49     -10.418  15.883  27.467  1.00  0.00     0.292 A 
ATOM   1095  O6    G A  49     -10.235  17.085  27.696  1.00  0.00    -0.265 OA
ATOM   1096  N1    G A  49     -10.645  15.006  28.521  1.00  0.00    -0.153 N 
ATOM   1097  H1    G A  49     -10.653  15.392  29.452  1.00  0.00     0.187 HD
ATOM   1098  C2    G A  49     -10.857  13.658  28.392  1.00  0.00     0.703 A 
ATOM   1099  N3    G A  49     -10.874  13.019  27.238  1.00  0.00    -0.044 NA
ATOM   1100  N2    G A  49     -11.057  12.982  29.526  1.00  0.00    -0.233 N 
ATOM   1101  H21   G A  49     -11.219  11.987  29.488  1.00  0.00     0.174 HD
ATOM   1102  H22   G A  49     -11.049  13.464  30.415  1.00  0.00     0.174 HD
ATOM   1103  O3'   G A  49     -13.757  11.410  22.333  1.00  0.00    -0.279 OA
ATOM   1104  P     C A  50     -15.225  12.038  22.528  1.00  0.00     0.408 P 
ATOM   1105  OP1   C A  50     -16.203  11.047  22.008  1.00  0.00    -0.624 OA
ATOM   1106  OP2   C A  50     -15.222  13.420  21.983  1.00  0.00    -0.624 OA
ATOM   1107  O5'   C A  50     -15.402  12.129  24.109  1.00  0.00    -0.287 OA
ATOM   1108  C5'   C A  50     -15.485  10.948  24.906  1.00  0.00     0.216 C 
ATOM   1109  C4'   C A  50     -15.439  11.302  26.375  1.00  0.00     0.180 C 
ATOM   1110  O4'   C A  50     -14.235  12.059  26.660  1.00  0.00    -0.353 OA
ATOM   1111  C3'   C A  50     -16.545  12.217  26.876  1.00  0.00     0.198 C 
ATOM   1112  C1'   C A  50     -14.471  12.921  27.760  1.00  0.00     0.264 C 
ATOM   1113  N1    C A  50     -14.113  14.296  27.371  1.00  0.00    -0.278 N 
ATOM   1114  C2'   C A  50     -15.940  12.768  28.161  1.00  0.00     0.199 C 
ATOM   1115  C6    C A  50     -13.885  14.622  26.062  1.00  0.00     0.102 A 
ATOM   1116  C2    C A  50     -14.011  15.271  28.367  1.00  0.00     0.352 A 
ATOM   1117  C5    C A  50     -13.559  15.871  25.709  1.00  0.00     0.067 A 
ATOM   1118  C4    C A  50     -13.464  16.843  26.746  1.00  0.00     0.128 A 
ATOM   1119  N4    C A  50     -13.144  18.104  26.460  1.00  0.00    -0.384 N 
ATOM   1120  N3    C A  50     -13.687  16.535  28.025  1.00  0.00    -0.177 NA
ATOM   1121  H42   C A  50     -13.076  18.783  27.206  1.00  0.00     0.157 HD
ATOM   1122  H41   C A  50     -12.966  18.380  25.505  1.00  0.00     0.157 HD
ATOM   1123  O2    C A  50     -14.222  14.950  29.545  1.00  0.00    -0.244 OA
ATOM   1124  O2'   C A  50     -16.024  11.823  29.212  1.00  0.00    -0.388 OA
ATOM   1125 'HO2   C A  50     -16.627  11.139  28.919  1.00  0.00     0.210 HD
ATOM   1126  O3'   C A  50     -17.761  11.512  27.104  1.00  0.00    -0.279 OA
ATOM   1127  P     C A  51     -19.156  12.315  27.140  1.00  0.00     0.408 P 
ATOM   1128  OP1   C A  51     -20.238  11.316  27.326  1.00  0.00    -0.624 OA
ATOM   1129  OP2   C A  51     -19.198  13.234  25.973  1.00  0.00    -0.624 OA
ATOM   1130  O5'   C A  51     -19.060  13.198  28.462  1.00  0.00    -0.287 OA
ATOM   1131  C5'   C A  51     -18.928  12.588  29.745  1.00  0.00     0.216 C 
ATOM   1132  C4'   C A  51     -18.918  13.641  30.829  1.00  0.00     0.180 C 
ATOM   1133  O4'   C A  51     -17.674  14.386  30.763  1.00  0.00    -0.353 OA
ATOM   1134  C3'   C A  51     -19.989  14.715  30.718  1.00  0.00     0.198 C 
ATOM   1135  C1'   C A  51     -17.901  15.724  31.176  1.00  0.00     0.264 C 
ATOM   1136  N1    C A  51     -17.467  16.627  30.097  1.00  0.00    -0.278 N 
ATOM   1137  C2'   C A  51     -19.384  15.858  31.526  1.00  0.00     0.199 C 
ATOM   1138  C6    C A  51     -17.388  16.189  28.804  1.00  0.00     0.102 A 
ATOM   1139  C2    C A  51     -17.133  17.944  30.416  1.00  0.00     0.352 A 
ATOM   1140  C5    C A  51     -16.985  17.005  27.821  1.00  0.00     0.067 A 
ATOM   1141  C4    C A  51     -16.647  18.343  28.178  1.00  0.00     0.128 A 
ATOM   1142  N4    C A  51     -16.236  19.202  27.247  1.00  0.00    -0.384 N 
ATOM   1143  N3    C A  51     -16.727  18.780  29.435  1.00  0.00    -0.177 NA
ATOM   1144  H41   C A  51     -16.159  18.915  26.283  1.00  0.00     0.157 HD
ATOM   1145  H42   C A  51     -15.995  20.146  27.518  1.00  0.00     0.157 HD
ATOM   1146  O2    C A  51     -17.218  18.318  31.594  1.00  0.00    -0.244 OA
ATOM   1147  O2'   C A  51     -19.542  15.639  32.915  1.00  0.00    -0.388 OA
ATOM   1148 'HO2   C A  51     -19.950  14.779  33.016  1.00  0.00     0.210 HD
ATOM   1149  O3'   C A  51     -21.237  14.275  31.248  1.00  0.00    -0.279 OA
ATOM   1150  P     C A  52     -22.598  15.006  30.801  1.00  0.00     0.408 P 
ATOM   1151  OP1   C A  52     -23.729  14.202  31.327  1.00  0.00    -0.624 OA
ATOM   1152  OP2   C A  52     -22.521  15.301  29.347  1.00  0.00    -0.624 OA
ATOM   1153  O5'   C A  52     -22.570  16.393  31.587  1.00  0.00    -0.287 OA
ATOM   1154  C5'   C A  52     -22.485  16.429  33.012  1.00  0.00     0.216 C 
ATOM   1155  C4'   C A  52     -22.408  17.860  33.493  1.00  0.00     0.180 C 
ATOM   1156  O4'   C A  52     -21.080  18.377  33.219  1.00  0.00    -0.353 OA
ATOM   1157  C3'   C A  52     -23.346  18.836  32.799  1.00  0.00     0.182 C 
ATOM   1158  C1'   C A  52     -21.164  19.749  32.875  1.00  0.00     0.264 C 
ATOM   1159  N1    C A  52     -20.593  19.924  31.530  1.00  0.00    -0.278 N 
ATOM   1160  C2'   C A  52     -22.631  20.171  32.983  1.00  0.00     0.198 C 
ATOM   1161  C6    C A  52     -20.819  19.002  30.547  1.00  0.00     0.102 A 
ATOM   1162  C2    C A  52     -19.811  21.053  31.272  1.00  0.00     0.352 A 
ATOM   1163  C5    C A  52     -20.298  19.155  29.323  1.00  0.00     0.067 A 
ATOM   1164  C4    C A  52     -19.502  20.314  29.089  1.00  0.00     0.128 A 
ATOM   1165  N4    C A  52     -18.955  20.522  27.892  1.00  0.00    -0.384 N 
ATOM   1166  N3    C A  52     -19.278  21.220  30.041  1.00  0.00    -0.177 NA
ATOM   1167  H41   C A  52     -19.100  19.861  27.144  1.00  0.00     0.157 HD
ATOM   1168  H42   C A  52     -18.391  21.347  27.744  1.00  0.00     0.157 HD
ATOM   1169  O2    C A  52     -19.626  21.876  32.179  1.00  0.00    -0.244 OA
ATOM   1170  O2'   C A  52     -22.857  20.698  34.277  1.00  0.00    -0.388 OA
ATOM   1171 'HO2   C A  52     -23.718  20.387  34.560  1.00  0.00     0.210 HD
ATOM   1172  O3'   C A  52     -24.655  18.834  33.377  1.00  0.00    -0.390 OA
ATOM   1173 'HO3   C A  52     -24.933  17.917  33.446  1.00  0.00     0.210 HD
ATOM   1174  C4    G A  47      -3.349  17.881  21.908  1.00  0.00     0.187 A 
ATOM   1175  C8    G A  47      -3.281  20.037  21.484  1.00  0.00     0.214 A 
ATOM   1176  N3    G A  47      -3.377  16.540  21.767  1.00  0.00    -0.044 NA
ATOM   1177  C5    G A  47      -3.376  18.624  23.070  1.00  0.00     0.173 A 
ATOM   1178  C2    G A  47      -3.441  15.921  22.931  1.00  0.00     0.703 A 
ATOM   1179  N2    G A  47      -3.479  14.588  22.971  1.00  0.00    -0.233 N 
ATOM   1180  N1    G A  47      -3.473  16.564  24.141  1.00  0.00    -0.153 N 
ATOM   1181  H21   G A  47      -3.458  14.065  22.109  1.00  0.00     0.174 HD
ATOM   1182  H22   G A  47      -3.534  14.106  23.859  1.00  0.00     0.174 HD
ATOM   1183  C6    G A  47      -3.443  17.943  24.315  1.00  0.00     0.292 A 
ATOM   1184  H1    G A  47      -3.521  15.997  24.974  1.00  0.00     0.187 HD
ATOM   1185  O6    G A  47      -3.477  18.421  25.455  1.00  0.00    -0.265 OA
ATOM   1186  N7    G A  47      -3.330  19.982  22.787  1.00  0.00    -0.234 NA
ENDBRANCH 1042 1043
ENDBRANCH 1041 1042
ENDBRANCH 1038 1041
ENDBRANCH 1037 1038
ENDBRANCH 1024 1037
ENDBRANCH 1019 1020
ENDBRANCH 1018 1019
ENDBRANCH 1015 1018
ENDBRANCH 1012 1015
ENDBRANCH 989 990
ENDBRANCH 956 989
BRANCH 958 1187
ATOM   1187  O2'   G A  44     -14.868  25.220  16.582  1.00  0.00    -0.388 OA
ATOM   1188 'HO2   G A  44     -14.309  25.351  15.816  1.00  0.00     0.210 HD
ENDBRANCH 958 1187
ENDBRANCH 942 943
ENDBRANCH 941 942
ENDBRANCH 938 941
ENDBRANCH 937 938
ENDBRANCH 922 937
ENDBRANCH 840 846
BRANCH 843 1189
ATOM   1189  N9    A A  38     -31.940  22.417  30.364  1.00  0.00    -0.294 N 
ATOM   1190  C4    A A  38     -31.608  21.951  31.613  1.00  0.00     0.167 A 
ATOM   1191  N3    A A  38     -32.360  21.996  32.726  1.00  0.00    -0.222 NA
ATOM   1192  C5    A A  38     -30.335  21.425  31.494  1.00  0.00     0.149 A 
ATOM   1193  C2    A A  38     -31.713  21.449  33.753  1.00  0.00     0.237 A 
ATOM   1194  N1    A A  38     -30.492  20.905  33.789  1.00  0.00    -0.222 NA
ATOM   1195  C6    A A  38     -29.762  20.876  32.654  1.00  0.00     0.155 A 
ATOM   1196  N6    A A  38     -28.544  20.333  32.695  1.00  0.00    -0.382 N 
ATOM   1197  H62   A A  38     -28.195  19.960  33.566  1.00  0.00     0.157 HD
ATOM   1198  H61   A A  38     -27.980  20.300  31.860  1.00  0.00     0.157 HD
ATOM   1199  N7    A A  38     -29.871  21.555  30.192  1.00  0.00    -0.236 NA
ATOM   1200  C8    A A  38     -30.857  22.149  29.564  1.00  0.00     0.214 A 
ENDBRANCH 843 1189
ENDBRANCH 838 839
ENDBRANCH 837 838
ENDBRANCH 834 837
ENDBRANCH 833 834
ENDBRANCH 818 833
ENDBRANCH 813 814
ENDBRANCH 796 813
ENDBRANCH 765 766
ENDBRANCH 764 765
ENDBRANCH 761 764
ENDBRANCH 760 761
ENDBRANCH 696 760
BRANCH 755 1201
ATOM   1201  N9    A A  29      -3.598   2.263  35.771  1.00  0.00    -0.294 N 
ATOM   1202  C8    A A  29      -3.548   2.897  34.554  1.00  0.00     0.214 A 
ATOM   1203  N7    A A  29      -2.344   2.951  34.036  1.00  0.00    -0.236 NA
ATOM   1204  C5    A A  29      -1.549   2.312  34.978  1.00  0.00     0.149 A 
ATOM   1205  C4    A A  29      -2.308   1.885  36.051  1.00  0.00     0.167 A 
ATOM   1206  C6    A A  29      -0.170   2.042  35.024  1.00  0.00     0.155 A 
ATOM   1207  N3    A A  29      -1.867   1.234  37.142  1.00  0.00    -0.222 NA
ATOM   1208  C2    A A  29      -0.553   1.038  37.072  1.00  0.00     0.237 A 
ATOM   1209  N1    A A  29       0.307   1.391  36.108  1.00  0.00    -0.222 NA
ATOM   1210  N6    A A  29       0.686   2.388  34.062  1.00  0.00    -0.382 N 
ATOM   1211  H61   A A  29       0.349   2.874  33.244  1.00  0.00     0.157 HD
ATOM   1212  H62   A A  29       1.670   2.175  34.154  1.00  0.00     0.157 HD
ENDBRANCH 755 1201
ENDBRANCH 627 628
ENDBRANCH 626 627
ENDBRANCH 623 626
ENDBRANCH 622 623
ENDBRANCH 592 622
BRANCH 594 1213
ATOM   1213  O2'   G A  28      -2.773   4.231  41.428  1.00  0.00    -0.388 OA
ATOM   1214 'HO2   G A  28      -2.904   4.831  40.694  1.00  0.00     0.210 HD
ENDBRANCH 594 1213
BRANCH 604 1215
ATOM   1215  N2    G A  28      -1.891   7.031  46.130  1.00  0.00    -0.233 N 
ATOM   1216  H21   G A  28      -1.186   7.326  45.472  1.00  0.00     0.174 HD
ATOM   1217  H22   G A  28      -1.634   6.795  47.079  1.00  0.00     0.174 HD
ENDBRANCH 604 1215
ENDBRANCH 552 553
ENDBRANCH 549 552
ENDBRANCH 548 549
ENDBRANCH 544 548
BRANCH 545 1218
ATOM   1218  O2'   C A  25     -15.818  12.534  46.853  1.00  0.00    -0.388 OA
ATOM   1219 'HO2   C A  25     -16.367  12.263  46.117  1.00  0.00     0.210 HD
ENDBRANCH 545 1218
BRANCH 546 1220
ATOM   1220  N1    C A  25     -15.635  10.073  49.560  1.00  0.00    -0.278 N 
ATOM   1221  C2    C A  25     -15.447  10.685  50.801  1.00  0.00     0.352 A 
ATOM   1222  N3    C A  25     -14.848   9.994  51.796  1.00  0.00    -0.177 NA
ATOM   1223  O2    C A  25     -15.834  11.850  50.960  1.00  0.00    -0.244 OA
ATOM   1224  C4    C A  25     -14.449   8.739  51.587  1.00  0.00     0.128 A 
ATOM   1225  C5    C A  25     -14.632   8.087  50.334  1.00  0.00     0.067 A 
ATOM   1226  N4    C A  25     -13.864   8.098  52.598  1.00  0.00    -0.384 N 
ATOM   1227  C6    C A  25     -15.222   8.786  49.357  1.00  0.00     0.102 A 
ATOM   1228  H42   C A  25     -13.736   8.567  53.483  1.00  0.00     0.157 HD
ATOM   1229  H41   C A  25     -13.548   7.146  52.481  1.00  0.00     0.157 HD
ENDBRANCH 546 1220
ENDBRANCH 513 543
ENDBRANCH 367 368
ENDBRANCH 364 367
ENDBRANCH 363 364
ENDBRANCH 360 363
ENDBRANCH 346 347
ENDBRANCH 345 346
ENDBRANCH 342 345
ENDBRANCH 341 342
ENDBRANCH 317 341
ENDBRANCH 251 252
ENDBRANCH 250 251
ENDBRANCH 247 250
ENDBRANCH 246 247
ENDBRANCH 223 246
ENDBRANCH 206 207
ENDBRANCH 205 206
ENDBRANCH 202 205
ENDBRANCH 201 202
ENDBRANCH 179 201
BRANCH 197 1230
ATOM   1230  N9    G A   9     -21.081   3.849  35.337  1.00  0.00    -0.293 N 
ATOM   1231  C4    G A   9     -21.174   5.096  35.906  1.00  0.00     0.187 A 
ATOM   1232  N3    G A   9     -20.516   6.203  35.501  1.00  0.00    -0.044 NA
ATOM   1233  C5    G A   9     -22.065   4.959  36.949  1.00  0.00     0.173 A 
ATOM   1234  C2    G A   9     -20.809   7.251  36.248  1.00  0.00     0.703 A 
ATOM   1235  N1    G A   9     -21.680   7.221  37.307  1.00  0.00    -0.153 N 
ATOM   1236  C6    G A   9     -22.372   6.096  37.740  1.00  0.00     0.292 A 
ATOM   1237  H1    G A   9     -21.833   8.080  37.811  1.00  0.00     0.187 HD
ATOM   1238  O6    G A   9     -23.138   6.182  38.707  1.00  0.00    -0.265 OA
ATOM   1239  N7    G A   9     -22.524   3.651  37.035  1.00  0.00    -0.234 NA
ATOM   1240  C8    G A   9     -21.914   3.032  36.061  1.00  0.00     0.214 A 
BRANCH 1234 1241
ATOM   1241  N2    G A   9     -20.242   8.431  35.985  1.00  0.00    -0.233 N 
ATOM   1242  H21   G A   9     -20.803   9.175  35.598  1.00  0.00     0.174 HD
ATOM   1243  H22   G A   9     -19.258   8.575  36.167  1.00  0.00     0.174 HD
ENDBRANCH 1234 1241
ENDBRANCH 197 1230
ENDBRANCH 165 166
ENDBRANCH 162 165
ENDBRANCH 137 162
ENDBRANCH 113 117
BRANCH 114 1244
ATOM   1244  O2'   G A   6     -29.274   9.147  35.783  1.00  0.00    -0.388 OA
ATOM   1245 'HO2   G A   6     -29.062   9.090  34.851  1.00  0.00     0.210 HD
ENDBRANCH 114 1244
BRANCH 115 1246
ATOM   1246  N9    G A   6     -32.317  10.374  34.208  1.00  0.00    -0.293 N 
ATOM   1247  C8    G A   6     -33.603  10.452  34.687  1.00  0.00     0.214 A 
ATOM   1248  N7    G A   6     -34.276  11.457  34.197  1.00  0.00    -0.234 NA
ATOM   1249  C5    G A   6     -33.378  12.085  33.344  1.00  0.00     0.173 A 
ATOM   1250  C4    G A   6     -32.165  11.429  33.341  1.00  0.00     0.187 A 
ATOM   1251  C6    G A   6     -33.534  13.236  32.528  1.00  0.00     0.292 A 
ATOM   1252  N3    G A   6     -31.046  11.731  32.649  1.00  0.00    -0.044 NA
ATOM   1253  C2    G A   6     -31.207  12.805  31.896  1.00  0.00     0.703 A 
ATOM   1254  N2    G A   6     -30.196  13.247  31.143  1.00  0.00    -0.233 N 
ATOM   1255  N1    G A   6     -32.371  13.526  31.825  1.00  0.00    -0.153 N 
ATOM   1256  H22   G A   6     -30.312  14.068  30.566  1.00  0.00     0.174 HD
ATOM   1257  H21   G A   6     -29.314  12.756  31.156  1.00  0.00     0.174 HD
ATOM   1258  H1    G A   6     -32.387  14.330  31.216  1.00  0.00     0.187 HD
ATOM   1259  O6    G A   6     -34.529  13.957  32.392  1.00  0.00    -0.265 OA
ENDBRANCH 115 1246
ENDBRANCH 111 112
ENDBRANCH 110 111
ENDBRANCH 107 110
ENDBRANCH 106 107
ENDBRANCH 102 106
BRANCH 103 1260
ATOM   1260  O2'   C A   5     -35.819   4.320  37.504  1.00  0.00    -0.388 OA
ATOM   1261 'HO2   C A   5     -35.270   4.914  36.989  1.00  0.00     0.210 HD
ENDBRANCH 103 1260
BRANCH 104 1262
ATOM   1262  N1    C A   5     -35.776   0.827  38.418  1.00  0.00    -0.278 N 
ATOM   1263  C2    C A   5     -35.816   1.083  39.790  1.00  0.00     0.352 A 
ATOM   1264  O2    C A   5     -36.070   2.231  40.180  1.00  0.00    -0.244 OA
ATOM   1265  N3    C A   5     -35.576   0.077  40.660  1.00  0.00    -0.177 NA
ATOM   1266  C4    C A   5     -35.309  -1.147  40.204  1.00  0.00     0.128 A 
ATOM   1267  N4    C A   5     -35.082  -2.106  41.100  1.00  0.00    -0.384 N 
ATOM   1268  C5    C A   5     -35.263  -1.440  38.809  1.00  0.00     0.067 A 
ATOM   1269  H42   C A   5     -35.111  -1.888  42.087  1.00  0.00     0.157 HD
ATOM   1270  H41   C A   5     -34.876  -3.047  40.801  1.00  0.00     0.157 HD
ATOM   1271  C6    C A   5     -35.499  -0.431  37.960  1.00  0.00     0.102 A 
ENDBRANCH 104 1262
ENDBRANCH 100 101
ENDBRANCH  99 100
ENDBRANCH  96  99
ENDBRANCH  95  96
ENDBRANCH  67  95
ENDBRANCH  24  27
ENDBRANCH  23  24
ENDBRANCH  22  23
BRANCH  21 1272
ATOM   1272  O2'   G A   1     -42.832  -3.804  42.857  1.00  0.00    -0.388 OA
ATOM   1273 'HO2   G A   1     -43.586  -3.236  43.024  1.00  0.00     0.210 HD
ENDBRANCH  21 1272
TORSDOF 402
ENDMDL
