MODEL 1
REMARK VINA RESULT:      -8.2      0.000      0.000
REMARK WARNING: 32 MAX_TORS EXCEEDED!!!
REMARK  99 active torsions:
REMARK  status: ('A' for Active; 'I' for Inactive)
REMARK       I    between atoms: O5'_2  and  C5'_3 
REMARK       I    between atoms: C5'_3  and  C4'_4 
REMARK       I    between atoms: C1'_6  and  N9_7 
REMARK       I    between atoms: C2_10  and  N2_11 
REMARK       I    between atoms: C2'_21  and  O2'_22 
REMARK       I    between atoms: C3'_24  and  O3'_25 
REMARK       I    between atoms: O3'_25  and  P_26 
REMARK       I    between atoms: P_26  and  O5'_29 
REMARK       I    between atoms: O5'_29  and  C5'_30 
REMARK       I    between atoms: C5'_30  and  C4'_31 
REMARK       I    between atoms: C1'_33  and  N9_34 
REMARK       I    between atoms: C2_37  and  N2_38 
REMARK       I    between atoms: C2'_48  and  O2'_49 
REMARK       I    between atoms: C3'_51  and  O3'_52 
REMARK       I    between atoms: O3'_52  and  P_53 
REMARK       I    between atoms: P_53  and  O5'_56 
REMARK       I    between atoms: O5'_56  and  C5'_57 
REMARK       I    between atoms: C5'_57  and  C4'_58 
REMARK       I    between atoms: C1'_60  and  N9_61 
REMARK       I    between atoms: C2_64  and  N2_65 
REMARK       I    between atoms: C2'_75  and  O2'_76 
REMARK       I    between atoms: C3'_78  and  O3'_79 
REMARK       I    between atoms: O3'_79  and  P_80 
REMARK       I    between atoms: P_80  and  O5'_83 
REMARK       I    between atoms: O5'_83  and  C5'_84 
REMARK       I    between atoms: C5'_84  and  C4'_85 
REMARK       I    between atoms: C1'_87  and  N9_88 
REMARK       I    between atoms: C2_91  and  N2_92 
REMARK       I    between atoms: C2'_102  and  O2'_103 
REMARK       I    between atoms: C3'_105  and  O3'_106 
REMARK       I    between atoms: O3'_106  and  P_107 
REMARK       I    between atoms: P_107  and  O5'_110 
REMARK       I    between atoms: O5'_110  and  C5'_111 
REMARK       I    between atoms: C5'_111  and  C4'_112 
REMARK       I    between atoms: C1'_114  and  N9_115 
REMARK       I    between atoms: C2_118  and  N2_119 
REMARK       I    between atoms: C2'_129  and  O2'_130 
REMARK       I    between atoms: C3'_132  and  O3'_133 
REMARK       I    between atoms: O3'_133  and  P_134 
REMARK       I    between atoms: P_134  and  O5'_137 
REMARK       I    between atoms: O5'_137  and  C5'_138 
REMARK       I    between atoms: C5'_138  and  C4'_139 
REMARK       I    between atoms: C1'_141  and  N1_142 
REMARK       I    between atoms: C2'_151  and  O2'_152 
REMARK       I    between atoms: C3'_154  and  O3'_155 
REMARK       I    between atoms: O3'_155  and  P_156 
REMARK       I    between atoms: P_156  and  O5'_159 
REMARK       I    between atoms: O5'_159  and  C5'_160 
REMARK       I    between atoms: C5'_160  and  C4'_161 
REMARK       I    between atoms: C1'_163  and  N9_164 
REMARK       I    between atoms: C2_167  and  N2_168 
REMARK       I    between atoms: C2'_178  and  O2'_179 
REMARK       I    between atoms: C3'_181  and  O3'_182 
REMARK       I    between atoms: O3'_182  and  P_183 
REMARK       I    between atoms: P_183  and  O5'_186 
REMARK       I    between atoms: O5'_186  and  C5'_187 
REMARK       I    between atoms: C5'_187  and  C4'_188 
REMARK       I    between atoms: C1'_190  and  N1_191 
REMARK       I    between atoms: C2'_200  and  O2'_201 
REMARK       I    between atoms: C3'_203  and  O3'_204 
REMARK       I    between atoms: O3'_204  and  P_205 
REMARK       I    between atoms: P_205  and  O5'_208 
REMARK       I    between atoms: O5'_208  and  C5'_209 
REMARK       I    between atoms: C5'_209  and  C4'_210 
REMARK       I    between atoms: C1'_212  and  N9_213 
REMARK       I    between atoms: C6_218  and  N6_219 
REMARK       I    between atoms: C2'_225  and  O2'_226 
REMARK       I    between atoms: C3'_228  and  O3'_229 
REMARK       I    between atoms: O3'_229  and  P_230 
REMARK       I    between atoms: P_230  and  O5'_233 
REMARK       I    between atoms: O5'_233  and  C5'_234 
REMARK       I    between atoms: C5'_234  and  C4'_235 
REMARK       I    between atoms: C1'_237  and  N9_238 
REMARK       I    between atoms: C2_241  and  N2_242 
REMARK       I    between atoms: C2'_252  and  O2'_253 
REMARK       I    between atoms: C3'_255  and  O3'_256 
REMARK       I    between atoms: O3'_256  and  P_257 
REMARK       I    between atoms: P_257  and  O5'_260 
REMARK       I    between atoms: O5'_260  and  C5'_261 
REMARK       I    between atoms: C5'_261  and  C4'_262 
REMARK       I    between atoms: C1'_264  and  N1_265 
REMARK       I    between atoms: C4_270  and  N4_271 
REMARK       I    between atoms: C2'_275  and  O2'_276 
REMARK       I    between atoms: C3'_278  and  O3'_279 
REMARK       I    between atoms: O3'_279  and  P_280 
REMARK       I    between atoms: P_280  and  O5'_283 
REMARK       I    between atoms: O5'_283  and  C5'_284 
REMARK       I    between atoms: C5'_284  and  C4'_285 
REMARK       I    between atoms: C1'_287  and  N1_288 
REMARK       I    between atoms: C2'_297  and  O2'_298 
REMARK       I    between atoms: C3'_300  and  O3'_301 
REMARK       I    between atoms: O3'_301  and  P_302 
REMARK       I    between atoms: P_302  and  O5'_305 
REMARK       I    between atoms: O5'_305  and  C5'_306 
REMARK       I    between atoms: C5'_306  and  C4'_307 
REMARK       I    between atoms: C1'_309  and  N1_310 
REMARK    1  A    between atoms: C4_315  and  N4_316 
REMARK    2  A    between atoms: C2'_320  and  O2'_321 
REMARK    3  A    between atoms: C3'_323  and  O3'_324 
REMARK    4  A    between atoms: O3'_324  and  P_325 
REMARK    5  A    between atoms: P_325  and  O5'_328 
REMARK    6  A    between atoms: O5'_328  and  C5'_329 
REMARK    7  A    between atoms: C5'_329  and  C4'_330 
REMARK    8  A    between atoms: C1'_332  and  N9_333 
REMARK    9  A    between atoms: C6_338  and  N6_339 
REMARK   10  A    between atoms: C2'_345  and  O2'_346 
REMARK   11  A    between atoms: C3'_348  and  O3'_349 
REMARK   12  A    between atoms: O3'_349  and  P_350 
REMARK   13  A    between atoms: P_350  and  O5'_353 
REMARK   14  A    between atoms: O5'_353  and  C5'_354 
REMARK   15  A    between atoms: C5'_354  and  C4'_355 
REMARK   16  A    between atoms: C1'_357  and  N9_358 
REMARK   17  A    between atoms: C2_361  and  N2_362 
REMARK   18  A    between atoms: C2'_372  and  O2'_373 
REMARK   19  A    between atoms: C3'_375  and  O3'_376 
REMARK   20  A    between atoms: O3'_376  and  P_377 
REMARK   21  A    between atoms: P_377  and  O5'_380 
REMARK   22  A    between atoms: O5'_380  and  C5'_381 
REMARK   23  A    between atoms: C5'_381  and  C4'_382 
REMARK   24  A    between atoms: C1'_384  and  N1_385 
REMARK   25  A    between atoms: C2'_394  and  O2'_395 
REMARK   26  A    between atoms: C3'_397  and  O3'_398 
REMARK   27  A    between atoms: O3'_398  and  P_399 
REMARK   28  A    between atoms: P_399  and  O5'_402 
REMARK   29  A    between atoms: O5'_402  and  C5'_403 
REMARK   30  A    between atoms: C5'_403  and  C4'_404 
REMARK   31  A    between atoms: C1'_406  and  N1_407 
REMARK   32  A    between atoms: C2'_416  and  O2'_417 
REMARK   33  A    between atoms: C3'_419  and  O3'_420 
REMARK   34  A    between atoms: O3'_420  and  P_421 
REMARK   35  A    between atoms: P_421  and  O5'_424 
REMARK   36  A    between atoms: O5'_424  and  C5'_425 
REMARK   37  A    between atoms: C5'_425  and  C4'_426 
REMARK   38  A    between atoms: C1'_428  and  N9_429 
REMARK   39  A    between atoms: C2_432  and  N2_433 
REMARK   40  A    between atoms: C2'_443  and  O2'_444 
REMARK   41  A    between atoms: C3'_446  and  O3'_447 
REMARK   42  A    between atoms: O3'_447  and  P_448 
REMARK   43  A    between atoms: P_448  and  O5'_451 
REMARK   44  A    between atoms: O5'_451  and  C5'_452 
REMARK   45  A    between atoms: C5'_452  and  C4'_453 
REMARK   46  A    between atoms: C1'_455  and  N9_456 
REMARK   47  A    between atoms: C2_459  and  N2_460 
REMARK   48  A    between atoms: C2'_470  and  O2'_471 
REMARK   49  A    between atoms: C3'_473  and  O3'_474 
REMARK   50  A    between atoms: O3'_474  and  P_475 
REMARK   51  A    between atoms: P_475  and  O5'_478 
REMARK   52  A    between atoms: O5'_478  and  C5'_479 
REMARK   53  A    between atoms: C5'_479  and  C4'_480 
REMARK   54  A    between atoms: C1'_482  and  N9_483 
REMARK   55  A    between atoms: C2_486  and  N2_487 
REMARK   56  A    between atoms: C2'_497  and  O2'_498 
REMARK   57  A    between atoms: C3'_500  and  O3'_501 
REMARK   58  A    between atoms: O3'_501  and  P_502 
REMARK   59  A    between atoms: P_502  and  O5'_505 
REMARK   60  A    between atoms: O5'_505  and  C5'_506 
REMARK   61  A    between atoms: C5'_506  and  C4'_507 
REMARK   62  A    between atoms: C1'_509  and  N9_510 
REMARK   63  A    between atoms: C6_515  and  N6_516 
REMARK   64  A    between atoms: C2'_522  and  O2'_523 
REMARK   65  A    between atoms: C3'_525  and  O3'_526 
REMARK   66  A    between atoms: O3'_526  and  P_527 
REMARK   67  A    between atoms: P_527  and  O5'_530 
REMARK   68  A    between atoms: O5'_530  and  C5'_531 
REMARK   69  A    between atoms: C5'_531  and  C4'_532 
REMARK   70  A    between atoms: C1'_534  and  N9_535 
REMARK   71  A    between atoms: C2_538  and  N2_539 
REMARK   72  A    between atoms: C2'_549  and  O2'_550 
REMARK   73  A    between atoms: C3'_552  and  O3'_553 
REMARK   74  A    between atoms: O3'_553  and  P_554 
REMARK   75  A    between atoms: P_554  and  O5'_557 
REMARK   76  A    between atoms: O5'_557  and  C5'_558 
REMARK   77  A    between atoms: C5'_558  and  C4'_559 
REMARK   78  A    between atoms: C1'_561  and  N9_562 
REMARK   79  A    between atoms: C6_567  and  N6_568 
REMARK   80  A    between atoms: C2'_574  and  O2'_575 
REMARK   81  A    between atoms: C3'_577  and  O3'_578 
REMARK   82  A    between atoms: O3'_578  and  P_579 
REMARK   83  A    between atoms: P_579  and  O5'_582 
REMARK   84  A    between atoms: O5'_582  and  C5'_583 
REMARK   85  A    between atoms: C5'_583  and  C4'_584 
REMARK   86  A    between atoms: C1'_586  and  N9_587 
REMARK   87  A    between atoms: C2_590  and  N2_591 
REMARK   88  A    between atoms: C2'_601  and  O2'_602 
REMARK   89  A    between atoms: C3'_604  and  O3'_605 
REMARK   90  A    between atoms: O3'_605  and  P_606 
REMARK   91  A    between atoms: P_606  and  O5'_609 
REMARK   92  A    between atoms: O5'_609  and  C5'_610 
REMARK   93  A    between atoms: C5'_610  and  C4'_611 
REMARK   94  A    between atoms: C1'_613  and  N1_614 
REMARK       I    between atoms: C4_619  and  N4_620 
REMARK       I    between atoms: C2'_624  and  O2'_625 
REMARK       I    between atoms: C3'_627  and  O3'_628 
REMARK       I    between atoms: O3'_628  and  P_629 
REMARK       I    between atoms: P_629  and  O5'_632 
REMARK       I    between atoms: O5'_632  and  C5'_633 
REMARK       I    between atoms: C5'_633  and  C4'_634 
REMARK       I    between atoms: C1'_636  and  N9_637 
REMARK       I    between atoms: C2_640  and  N2_641 
REMARK       I    between atoms: C2'_651  and  O2'_652 
REMARK       I    between atoms: C3'_654  and  O3'_655 
REMARK       I    between atoms: O3'_655  and  P_656 
REMARK       I    between atoms: P_656  and  O5'_659 
REMARK       I    between atoms: O5'_659  and  C5'_660 
REMARK       I    between atoms: C5'_660  and  C4'_661 
REMARK       I    between atoms: C1'_663  and  N1_664 
REMARK       I    between atoms: C4_669  and  N4_670 
REMARK       I    between atoms: C2'_674  and  O2'_675 
REMARK       I    between atoms: C3'_677  and  O3'_678 
REMARK       I    between atoms: O3'_678  and  P_679 
REMARK       I    between atoms: P_679  and  O5'_682 
REMARK       I    between atoms: O5'_682  and  C5'_683 
REMARK       I    between atoms: C5'_683  and  C4'_684 
REMARK       I    between atoms: C1'_686  and  N1_687 
REMARK       I    between atoms: C2'_696  and  O2'_697 
REMARK       I    between atoms: C3'_699  and  O3'_700 
REMARK       I    between atoms: O3'_700  and  P_701 
REMARK       I    between atoms: P_701  and  O5'_704 
REMARK       I    between atoms: O5'_704  and  C5'_705 
REMARK       I    between atoms: C5'_705  and  C4'_706 
REMARK       I    between atoms: C1'_708  and  N1_709 
REMARK       I    between atoms: C2'_718  and  O2'_719 
REMARK       I    between atoms: C3'_721  and  O3'_722 
REMARK       I    between atoms: O3'_722  and  P_723 
REMARK       I    between atoms: P_723  and  O5'_726 
REMARK       I    between atoms: O5'_726  and  C5'_727 
REMARK       I    between atoms: C5'_727  and  C4'_728 
REMARK       I    between atoms: C1'_730  and  N1_731 
REMARK       I    between atoms: C4_736  and  N4_737 
REMARK       I    between atoms: C2'_741  and  O2'_742 
REMARK       I    between atoms: C3'_744  and  O3'_745 
REMARK       I    between atoms: O3'_745  and  P_746 
REMARK       I    between atoms: P_746  and  O5'_749 
REMARK       I    between atoms: O5'_749  and  C5'_750 
REMARK       I    between atoms: C5'_750  and  C4'_751 
REMARK       I    between atoms: C1'_753  and  N9_754 
REMARK   95  A    between atoms: C6_759  and  N6_760 
REMARK   96  A    between atoms: C2'_766  and  O2'_767 
REMARK   97  A    between atoms: C3'_769  and  O3'_770 
REMARK   98  A    between atoms: O3'_770  and  P_771 
REMARK   99  A    between atoms: P_771  and  O5'_774 
REMARK       I    between atoms: O5'_774  and  C5'_775 
REMARK       I    between atoms: C5'_775  and  C4'_776 
REMARK       I    between atoms: C1'_778  and  N9_779 
REMARK       I    between atoms: C6_784  and  N6_785 
REMARK       I    between atoms: C2'_791  and  O2'_792 
REMARK       I    between atoms: C3'_794  and  O3'_795 
REMARK       I    between atoms: O3'_795  and  P_796 
REMARK       I    between atoms: P_796  and  O5'_799 
REMARK       I    between atoms: O5'_799  and  C5'_800 
REMARK       I    between atoms: C5'_800  and  C4'_801 
REMARK       I    between atoms: C1'_803  and  N1_804 
REMARK       I    between atoms: C2'_813  and  O2'_814 
REMARK       I    between atoms: C3'_816  and  O3'_817 
REMARK       I    between atoms: O3'_817  and  P_818 
REMARK       I    between atoms: P_818  and  O5'_821 
REMARK       I    between atoms: O5'_821  and  C5'_822 
REMARK       I    between atoms: C5'_822  and  C4'_823 
REMARK       I    between atoms: C1'_825  and  N9_826 
REMARK       I    between atoms: C2_829  and  N2_830 
REMARK       I    between atoms: C2'_840  and  O2'_841 
REMARK       I    between atoms: C3'_843  and  O3'_844 
REMARK       I    between atoms: O3'_844  and  P_845 
REMARK       I    between atoms: P_845  and  O5'_848 
REMARK       I    between atoms: O5'_848  and  C5'_849 
REMARK       I    between atoms: C5'_849  and  C4'_850 
REMARK       I    between atoms: C1'_852  and  N9_853 
REMARK       I    between atoms: C2_856  and  N2_857 
REMARK       I    between atoms: C2'_867  and  O2'_868 
REMARK       I    between atoms: C3'_870  and  O3'_871 
REMARK       I    between atoms: O3'_871  and  P_872 
REMARK       I    between atoms: P_872  and  O5'_875 
REMARK       I    between atoms: O5'_875  and  C5'_876 
REMARK       I    between atoms: C5'_876  and  C4'_877 
REMARK       I    between atoms: C1'_879  and  N1_880 
REMARK       I    between atoms: C4_885  and  N4_886 
REMARK       I    between atoms: C2'_890  and  O2'_891 
REMARK       I    between atoms: C3'_893  and  O3'_894 
REMARK       I    between atoms: O3'_894  and  P_895 
REMARK       I    between atoms: P_895  and  O5'_898 
REMARK       I    between atoms: O5'_898  and  C5'_899 
REMARK       I    between atoms: C5'_899  and  C4'_900 
REMARK       I    between atoms: C1'_902  and  N9_903 
REMARK       I    between atoms: C6_908  and  N6_909 
REMARK       I    between atoms: C2'_915  and  O2'_916 
REMARK       I    between atoms: C3'_918  and  O3'_919 
REMARK       I    between atoms: O3'_919  and  P_920 
REMARK       I    between atoms: P_920  and  O5'_923 
REMARK       I    between atoms: O5'_923  and  C5'_924 
REMARK       I    between atoms: C5'_924  and  C4'_925 
REMARK       I    between atoms: C1'_927  and  N1_928 
REMARK       I    between atoms: C2'_937  and  O2'_938 
REMARK       I    between atoms: C3'_940  and  O3'_941 
REMARK       I    between atoms: O3'_941  and  P_942 
REMARK       I    between atoms: P_942  and  O5'_945 
REMARK       I    between atoms: O5'_945  and  C5'_946 
REMARK       I    between atoms: C5'_946  and  C4'_947 
REMARK       I    between atoms: C1'_949  and  N1_950 
REMARK       I    between atoms: C2'_959  and  O2'_960 
REMARK       I    between atoms: C3'_962  and  O3'_963 
REMARK       I    between atoms: O3'_963  and  P_964 
REMARK       I    between atoms: P_964  and  O5'_967 
REMARK       I    between atoms: O5'_967  and  C5'_968 
REMARK       I    between atoms: C5'_968  and  C4'_969 
REMARK       I    between atoms: C1'_971  and  N9_972 
REMARK       I    between atoms: C2_975  and  N2_976 
REMARK       I    between atoms: C2'_986  and  O2'_987 
REMARK       I    between atoms: C3'_989  and  O3'_990 
REMARK       I    between atoms: O3'_990  and  P_991 
REMARK       I    between atoms: P_991  and  O5'_994 
REMARK       I    between atoms: O5'_994  and  C5'_995 
REMARK       I    between atoms: C5'_995  and  C4'_996 
REMARK       I    between atoms: C1'_998  and  N9_999 
REMARK       I    between atoms: C6_1004  and  N6_1005 
REMARK       I    between atoms: C2'_1011  and  O2'_1012 
REMARK       I    between atoms: C3'_1014  and  O3'_1015 
REMARK       I    between atoms: O3'_1015  and  P_1016 
REMARK       I    between atoms: P_1016  and  O5'_1019 
REMARK       I    between atoms: O5'_1019  and  C5'_1020 
REMARK       I    between atoms: C5'_1020  and  C4'_1021 
REMARK       I    between atoms: C1'_1023  and  N9_1024 
REMARK       I    between atoms: C6_1029  and  N6_1030 
REMARK       I    between atoms: C2'_1036  and  O2'_1037 
REMARK       I    between atoms: C3'_1039  and  O3'_1040 
REMARK       I    between atoms: O3'_1040  and  P_1041 
REMARK       I    between atoms: P_1041  and  O5'_1044 
REMARK       I    between atoms: O5'_1044  and  C5'_1045 
REMARK       I    between atoms: C5'_1045  and  C4'_1046 
REMARK       I    between atoms: C1'_1048  and  N9_1049 
REMARK       I    between atoms: C2_1052  and  N2_1053 
REMARK       I    between atoms: C2'_1063  and  O2'_1064 
REMARK       I    between atoms: C3'_1066  and  O3'_1067 
REMARK       I    between atoms: O3'_1067  and  P_1068 
REMARK       I    between atoms: P_1068  and  O5'_1071 
REMARK       I    between atoms: O5'_1071  and  C5'_1072 
REMARK       I    between atoms: C5'_1072  and  C4'_1073 
REMARK       I    between atoms: C1'_1075  and  N9_1076 
REMARK       I    between atoms: C6_1081  and  N6_1082 
REMARK       I    between atoms: C2'_1088  and  O2'_1089 
REMARK       I    between atoms: C3'_1091  and  O3'_1092 
REMARK       I    between atoms: O3'_1092  and  P_1093 
REMARK       I    between atoms: P_1093  and  O5'_1096 
REMARK       I    between atoms: O5'_1096  and  C5'_1097 
REMARK       I    between atoms: C5'_1097  and  C4'_1098 
REMARK       I    between atoms: C1'_1100  and  N9_1101 
REMARK       I    between atoms: C2_1104  and  N2_1105 
REMARK       I    between atoms: C2'_1115  and  O2'_1116 
REMARK       I    between atoms: C3'_1118  and  O3'_1119 
REMARK       I    between atoms: O3'_1119  and  P_1120 
REMARK       I    between atoms: P_1120  and  O5'_1123 
REMARK       I    between atoms: O5'_1123  and  C5'_1124 
REMARK       I    between atoms: C5'_1124  and  C4'_1125 
REMARK       I    between atoms: C1'_1127  and  N9_1128 
REMARK       I    between atoms: C2_1131  and  N2_1132 
REMARK       I    between atoms: C2'_1142  and  O2'_1143 
REMARK       I    between atoms: C3'_1145  and  O3'_1146 
REMARK       I    between atoms: O3'_1146  and  P_1147 
REMARK       I    between atoms: P_1147  and  O5'_1150 
REMARK       I    between atoms: O5'_1150  and  C5'_1151 
REMARK       I    between atoms: C5'_1151  and  C4'_1152 
REMARK       I    between atoms: C1'_1154  and  N1_1155 
REMARK       I    between atoms: C2'_1164  and  O2'_1165 
REMARK       I    between atoms: C3'_1167  and  O3'_1168 
REMARK       I    between atoms: O3'_1168  and  P_1169 
REMARK       I    between atoms: P_1169  and  O5'_1172 
REMARK       I    between atoms: O5'_1172  and  C5'_1173 
REMARK       I    between atoms: C5'_1173  and  C4'_1174 
REMARK       I    between atoms: C1'_1176  and  N1_1177 
REMARK       I    between atoms: C4_1182  and  N4_1183 
REMARK       I    between atoms: C2'_1187  and  O2'_1188 
REMARK       I    between atoms: C3'_1190  and  O3'_1191 
REMARK       I    between atoms: O3'_1191  and  P_1192 
REMARK       I    between atoms: P_1192  and  O5'_1195 
REMARK       I    between atoms: O5'_1195  and  C5'_1196 
REMARK       I    between atoms: C5'_1196  and  C4'_1197 
REMARK       I    between atoms: C1'_1199  and  N9_1200 
REMARK       I    between atoms: C6_1205  and  N6_1206 
REMARK       I    between atoms: C2'_1212  and  O2'_1213 
REMARK       I    between atoms: C3'_1215  and  O3'_1216 
REMARK       I    between atoms: O3'_1216  and  P_1217 
REMARK       I    between atoms: P_1217  and  O5'_1220 
REMARK       I    between atoms: O5'_1220  and  C5'_1221 
REMARK       I    between atoms: C5'_1221  and  C4'_1222 
REMARK       I    between atoms: C1'_1224  and  N9_1225 
REMARK       I    between atoms: C2_1228  and  N2_1229 
REMARK       I    between atoms: C2'_1239  and  O2'_1240 
REMARK       I    between atoms: C3'_1242  and  O3'_1243 
REMARK       I    between atoms: O3'_1243  and  P_1244 
REMARK       I    between atoms: P_1244  and  O5'_1247 
REMARK       I    between atoms: O5'_1247  and  C5'_1248 
REMARK       I    between atoms: C5'_1248  and  C4'_1249 
REMARK       I    between atoms: C1'_1251  and  N1_1252 
REMARK       I    between atoms: C4_1257  and  N4_1258 
REMARK       I    between atoms: C2'_1262  and  O2'_1263 
REMARK       I    between atoms: C3'_1265  and  O3'_1266 
REMARK       I    between atoms: O3'_1266  and  P_1267 
REMARK       I    between atoms: P_1267  and  O5'_1270 
REMARK       I    between atoms: O5'_1270  and  C5'_1271 
REMARK       I    between atoms: C5'_1271  and  C4'_1272 
REMARK       I    between atoms: C1'_1274  and  N1_1275 
REMARK       I    between atoms: C4_1280  and  N4_1281 
REMARK       I    between atoms: C2'_1285  and  O2'_1286 
REMARK       I    between atoms: C3'_1288  and  O3'_1289 
REMARK       I    between atoms: O3'_1289  and  P_1290 
REMARK       I    between atoms: P_1290  and  O5'_1293 
REMARK       I    between atoms: O5'_1293  and  C5'_1294 
REMARK       I    between atoms: C5'_1294  and  C4'_1295 
REMARK       I    between atoms: C1'_1297  and  N1_1298 
REMARK       I    between atoms: C4_1303  and  N4_1304 
REMARK       I    between atoms: C2'_1308  and  O2'_1309 
REMARK       I    between atoms: C3'_1311  and  O3'_1312 
REMARK       I    between atoms: O3'_1312  and  P_1313 
REMARK       I    between atoms: P_1313  and  O5'_1316 
REMARK       I    between atoms: O5'_1316  and  C5'_1317 
REMARK       I    between atoms: C5'_1317  and  C4'_1318 
REMARK       I    between atoms: C1'_1320  and  N1_1321 
REMARK       I    between atoms: C4_1326  and  N4_1327 
REMARK       I    between atoms: C2'_1331  and  O2'_1332 
REMARK       I    between atoms: C3'_1334  and  O3'_1335 
REMARK       I    between atoms: O3'_1335  and  P_1336 
REMARK       I    between atoms: P_1336  and  O5'_1339 
REMARK       I    between atoms: O5'_1339  and  C5'_1340 
REMARK       I    between atoms: C5'_1340  and  C4'_1341 
REMARK       I    between atoms: C1'_1343  and  N1_1344 
REMARK       I    between atoms: C4_1349  and  N4_1350 
REMARK       I    between atoms: C2'_1354  and  O2'_1355 
REMARK       I    between atoms: C3'_1357  and  O3'_1358 
ROOT
ATOM      1 5'HO  DG A   1     106.484  99.827 216.106  1.00  0.00     0.209 HD
ATOM      2  O5'  DG A   1     106.490 100.767 215.907  1.00  0.00    -0.398 OA
ATOM      3  C5'  DG A   1     107.203 100.930 214.677  1.00  0.00     0.198 C 
ATOM      4  C4'  DG A   1     107.433  99.594 214.008  1.00  0.00     0.180 C 
ATOM      5  O4'  DG A   1     108.374  98.827 214.810  1.00  0.00    -0.353 OA
ATOM      6  C1'  DG A   1     107.933  97.486 214.916  1.00  0.00     0.262 C 
ATOM      7  N9   DG A   1     107.542  97.239 216.302  1.00  0.00    -0.293 N 
ATOM      8  C4   DG A   1     107.067  96.058 216.819  1.00  0.00     0.187 A 
ATOM      9  N3   DG A   1     106.876  94.911 216.133  1.00  0.00    -0.044 NA
ATOM     10  C2   DG A   1     106.411  93.947 216.907  1.00  0.00     0.703 A 
ATOM     11  N2   DG A   1     106.167  92.741 216.388  1.00  0.00    -0.233 N 
ATOM     12  H21  DG A   1     106.341  92.580 215.407  1.00  0.00     0.174 HD
ATOM     13  H22  DG A   1     105.813  91.997 216.974  1.00  0.00     0.174 HD
ATOM     14  N1   DG A   1     106.153  94.092 218.245  1.00  0.00    -0.153 N 
ATOM     15  H1   DG A   1     105.798  93.291 218.743  1.00  0.00     0.187 HD
ATOM     16  C6   DG A   1     106.340  95.262 218.973  1.00  0.00     0.292 A 
ATOM     17  O6   DG A   1     106.074  95.282 220.182  1.00  0.00    -0.265 OA
ATOM     18  C5   DG A   1     106.839  96.310 218.156  1.00  0.00     0.173 A 
ATOM     19  N7   DG A   1     107.164  97.622 218.474  1.00  0.00    -0.234 NA
ATOM     20  C8   DG A   1     107.575  98.132 217.345  1.00  0.00     0.214 A 
ATOM     21  C2'  DG A   1     106.795  97.304 213.912  1.00  0.00     0.199 C 
ATOM     22  O2'  DG A   1     107.348  96.961 212.655  1.00  0.00    -0.388 OA
ATOM     23 2'HO  DG A   1     106.692  97.186 211.995  1.00  0.00     0.210 HD
ATOM     24  C3'  DG A   1     106.201  98.706 213.889  1.00  0.00     0.198 C 
ATOM     25  O3'  DG A   1     105.481  98.973 212.688  1.00  0.00    -0.279 OA
ATOM     26  P    DG A   2     103.879  98.823 212.665  1.00  0.00     0.408 P 
ATOM     27  OP1  DG A   2     103.420  99.246 211.317  1.00  0.00    -0.624 OA
ATOM     28  OP2  DG A   2     103.328  99.493 213.871  1.00  0.00    -0.624 OA
ATOM     29  O5'  DG A   2     103.636  97.255 212.806  1.00  0.00    -0.287 OA
ATOM     30  C5'  DG A   2     104.034  96.353 211.776  1.00  0.00     0.216 C 
ATOM     31  C4'  DG A   2     103.467  94.976 212.038  1.00  0.00     0.180 C 
ATOM     32  O4'  DG A   2     104.225  94.345 213.105  1.00  0.00    -0.353 OA
ATOM     33  C1'  DG A   2     103.354  93.569 213.912  1.00  0.00     0.262 C 
ATOM     34  N9   DG A   2     103.367  94.113 215.265  1.00  0.00    -0.293 N 
ATOM     35  C4   DG A   2     102.966  93.467 216.410  1.00  0.00     0.187 A 
ATOM     36  N3   DG A   2     102.491  92.207 216.484  1.00  0.00    -0.044 NA
ATOM     37  C2   DG A   2     102.187  91.867 217.723  1.00  0.00     0.703 A 
ATOM     38  N2   DG A   2     101.700  90.650 217.976  1.00  0.00    -0.233 N 
ATOM     39  H21  DG A   2     101.570  90.000 217.213  1.00  0.00     0.174 HD
ATOM     40  H22  DG A   2     101.461  90.380 218.920  1.00  0.00     0.174 HD
ATOM     41  N1   DG A   2     102.336  92.694 218.806  1.00  0.00    -0.153 N 
ATOM     42  H1   DG A   2     102.071  92.335 219.710  1.00  0.00     0.187 HD
ATOM     43  C6   DG A   2     102.825  93.994 218.756  1.00  0.00     0.292 A 
ATOM     44  O6   DG A   2     102.922  94.653 219.798  1.00  0.00    -0.265 OA
ATOM     45  C5   DG A   2     103.156  94.378 217.430  1.00  0.00     0.173 A 
ATOM     46  N7   DG A   2     103.666  95.571 216.937  1.00  0.00    -0.234 NA
ATOM     47  C8   DG A   2     103.774  95.367 215.652  1.00  0.00     0.214 A 
ATOM     48  C2'  DG A   2     101.973  93.602 213.257  1.00  0.00     0.199 C 
ATOM     49  O2'  DG A   2     101.875  92.524 212.345  1.00  0.00    -0.388 OA
ATOM     50 2'HO  DG A   2     100.944  92.315 212.266  1.00  0.00     0.210 HD
ATOM     51  C3'  DG A   2     102.029  94.941 212.532  1.00  0.00     0.198 C 
ATOM     52  O3'  DG A   2     101.096  95.022 211.458  1.00  0.00    -0.279 OA
ATOM     53  P    DG A   3      99.602  95.546 211.738  1.00  0.00     0.408 P 
ATOM     54  OP1  DG A   3      98.866  95.490 210.450  1.00  0.00    -0.624 OA
ATOM     55  OP2  DG A   3      99.686  96.831 212.478  1.00  0.00    -0.624 OA
ATOM     56  O5'  DG A   3      98.982  94.447 212.713  1.00  0.00    -0.287 OA
ATOM     57  C5'  DG A   3      98.416  93.245 212.197  1.00  0.00     0.216 C 
ATOM     58  C4'  DG A   3      98.208  92.240 213.310  1.00  0.00     0.180 C 
ATOM     59  O4'  DG A   3      99.289  92.343 214.271  1.00  0.00    -0.353 OA
ATOM     60  C1'  DG A   3      98.825  91.919 215.541  1.00  0.00     0.262 C 
ATOM     61  N9   DG A   3      99.178  92.934 216.529  1.00  0.00    -0.293 N 
ATOM     62  C4   DG A   3      98.970  92.854 217.885  1.00  0.00     0.187 A 
ATOM     63  N3   DG A   3      98.401  91.820 218.540  1.00  0.00    -0.044 NA
ATOM     64  C2   DG A   3      98.336  92.037 219.842  1.00  0.00     0.703 A 
ATOM     65  N2   DG A   3      97.794  91.115 220.641  1.00  0.00    -0.233 N 
ATOM     66  H21  DG A   3      97.439  90.260 220.238  1.00  0.00     0.174 HD
ATOM     67  H22  DG A   3      97.733  91.273 221.638  1.00  0.00     0.174 HD
ATOM     68  N1   DG A   3      98.797  93.173 220.455  1.00  0.00    -0.153 N 
ATOM     69  H1   DG A   3      98.698  93.235 221.456  1.00  0.00     0.187 HD
ATOM     70  C6   DG A   3      99.390  94.249 219.804  1.00  0.00     0.292 A 
ATOM     71  O6   DG A   3      99.774  95.225 220.458  1.00  0.00    -0.265 OA
ATOM     72  C5   DG A   3      99.462  94.034 218.402  1.00  0.00     0.173 A 
ATOM     73  N7   DG A   3      99.968  94.841 217.391  1.00  0.00    -0.234 NA
ATOM     74  C8   DG A   3      99.777  94.150 216.302  1.00  0.00     0.214 A 
ATOM     75  C2'  DG A   3      97.317  91.672 215.435  1.00  0.00     0.199 C 
ATOM     76  O2'  DG A   3      97.102  90.283 215.267  1.00  0.00    -0.388 OA
ATOM     77 2'HO  DG A   3      96.428  90.190 214.592  1.00  0.00     0.210 HD
ATOM     78  C3'  DG A   3      96.967  92.441 214.164  1.00  0.00     0.198 C 
ATOM     79  O3'  DG A   3      95.798  91.928 213.527  1.00  0.00    -0.279 OA
ATOM     80  P    DG A   4      94.351  92.510 213.922  1.00  0.00     0.408 P 
ATOM     81  OP1  DG A   4      93.337  91.670 213.234  1.00  0.00    -0.624 OA
ATOM     82  OP2  DG A   4      94.358  93.978 213.699  1.00  0.00    -0.624 OA
ATOM     83  O5'  DG A   4      94.236  92.241 215.490  1.00  0.00    -0.287 OA
ATOM     84  C5'  DG A   4      94.148  90.912 216.003  1.00  0.00     0.216 C 
ATOM     85  C4'  DG A   4      93.736  90.938 217.457  1.00  0.00     0.180 C 
ATOM     86  O4'  DG A   4      94.891  91.257 218.276  1.00  0.00    -0.353 OA
ATOM     87  C1'  DG A   4      94.464  91.932 219.447  1.00  0.00     0.262 C 
ATOM     88  N9   DG A   4      95.206  93.184 219.557  1.00  0.00    -0.293 N 
ATOM     89  C4   DG A   4      95.464  93.876 220.715  1.00  0.00     0.187 A 
ATOM     90  N3   DG A   4      95.079  93.514 221.956  1.00  0.00    -0.044 NA
ATOM     91  C2   DG A   4      95.475  94.382 222.868  1.00  0.00     0.703 A 
ATOM     92  N2   DG A   4      95.184  94.169 224.153  1.00  0.00    -0.233 N 
ATOM     93  H21  DG A   4      94.663  93.344 224.409  1.00  0.00     0.174 HD
ATOM     94  H22  DG A   4      95.481  94.824 224.862  1.00  0.00     0.174 HD
ATOM     95  N1   DG A   4      96.189  95.519 222.587  1.00  0.00    -0.153 N 
ATOM     96  H1   DG A   4      96.438  96.123 223.354  1.00  0.00     0.187 HD
ATOM     97  C6   DG A   4      96.598  95.913 221.318  1.00  0.00     0.292 A 
ATOM     98  O6   DG A   4      97.242  96.958 221.178  1.00  0.00    -0.265 OA
ATOM     99  C5   DG A   4      96.181  94.987 220.325  1.00  0.00     0.173 A 
ATOM    100  N7   DG A   4      96.373  94.993 218.949  1.00  0.00    -0.234 NA
ATOM    101  C8   DG A   4      95.779  93.905 218.539  1.00  0.00     0.214 A 
ATOM    102  C2'  DG A   4      92.949  92.130 219.349  1.00  0.00     0.199 C 
ATOM    103  O2'  DG A   4      92.313  91.081 220.056  1.00  0.00    -0.388 OA
ATOM    104 2'HO  DG A   4      91.383  91.302 220.112  1.00  0.00     0.210 HD
ATOM    105  C3'  DG A   4      92.723  92.003 217.846  1.00  0.00     0.198 C 
ATOM    106  O3'  DG A   4      91.390  91.608 217.525  1.00  0.00    -0.279 OA
ATOM    107  P    DG A   5      90.303  92.718 217.103  1.00  0.00     0.408 P 
ATOM    108  OP1  DG A   5      89.291  92.037 216.256  1.00  0.00    -0.624 OA
ATOM    109  OP2  DG A   5      91.014  93.911 216.577  1.00  0.00    -0.624 OA
ATOM    110  O5'  DG A   5      89.606  93.124 218.480  1.00  0.00    -0.287 OA
ATOM    111  C5'  DG A   5      88.521  92.362 219.010  1.00  0.00     0.216 C 
ATOM    112  C4'  DG A   5      88.585  92.341 220.521  1.00  0.00     0.180 C 
ATOM    113  O4'  DG A   5      89.975  92.394 220.940  1.00  0.00    -0.353 OA
ATOM    114  C1'  DG A   5      90.085  93.144 222.137  1.00  0.00     0.262 C 
ATOM    115  N9   DG A   5      90.968  94.280 221.894  1.00  0.00    -0.293 N 
ATOM    116  C4   DG A   5      91.733  94.933 222.830  1.00  0.00     0.187 A 
ATOM    117  N3   DG A   5      91.805  94.636 224.145  1.00  0.00    -0.044 NA
ATOM    118  C2   DG A   5      92.628  95.443 224.788  1.00  0.00     0.703 A 
ATOM    119  N2   DG A   5      92.818  95.288 226.101  1.00  0.00    -0.233 N 
ATOM    120  H21  DG A   5      92.328  94.553 226.589  1.00  0.00     0.174 HD
ATOM    121  H22  DG A   5      93.451  95.894 226.603  1.00  0.00     0.174 HD
ATOM    122  N1   DG A   5      93.326  96.461 224.194  1.00  0.00    -0.153 N 
ATOM    123  H1   DG A   5      93.931  97.015 224.781  1.00  0.00     0.187 HD
ATOM    124  C6   DG A   5      93.268  96.789 222.845  1.00  0.00     0.292 A 
ATOM    125  O6   DG A   5      93.940  97.732 222.414  1.00  0.00    -0.265 OA
ATOM    126  C5   DG A   5      92.387  95.930 222.136  1.00  0.00     0.173 A 
ATOM    127  N7   DG A   5      92.041  95.904 220.792  1.00  0.00    -0.234 NA
ATOM    128  C8   DG A   5      91.199  94.912 220.696  1.00  0.00     0.214 A 
ATOM    129  C2'  DG A   5      88.673  93.553 222.562  1.00  0.00     0.199 C 
ATOM    130  O2'  DG A   5      88.163  92.572 223.445  1.00  0.00    -0.388 OA
ATOM    131 2'HO  DG A   5      87.269  92.385 223.159  1.00  0.00     0.210 HD
ATOM    132  C3'  DG A   5      87.940  93.526 221.227  1.00  0.00     0.198 C 
ATOM    133  O3'  DG A   5      86.535  93.346 221.389  1.00  0.00    -0.279 OA
ATOM    134  P    DT A   6      85.572  94.631 221.511  1.00  0.00     0.408 P 
ATOM    135  OP1  DT A   6      84.262  94.156 222.022  1.00  0.00    -0.624 OA
ATOM    136  OP2  DT A   6      85.633  95.378 220.230  1.00  0.00    -0.624 OA
ATOM    137  O5'  DT A   6      86.257  95.523 222.640  1.00  0.00    -0.287 OA
ATOM    138  C5'  DT A   6      86.204  95.142 224.014  1.00  0.00     0.216 C 
ATOM    139  C4'  DT A   6      86.610  96.301 224.896  1.00  0.00     0.180 C 
ATOM    140  O4'  DT A   6      88.050  96.476 224.834  1.00  0.00    -0.353 OA
ATOM    141  C1'  DT A   6      88.366  97.851 224.982  1.00  0.00     0.264 C 
ATOM    142  N1   DT A   6      89.134  98.284 223.805  1.00  0.00    -0.280 N 
ATOM    143  C6   DT A   6      89.083  97.588 222.617  1.00  0.00     0.104 A 
ATOM    144  C2   DT A   6      89.910  99.421 223.930  1.00  0.00     0.331 A 
ATOM    145  O2   DT A   6      89.985 100.062 224.962  1.00  0.00    -0.246 OA
ATOM    146  N3   DT A   6      90.599  99.782 222.801  1.00  0.00    -0.275 N 
ATOM    147  H3   DT A   6      91.154 100.622 222.863  1.00  0.00     0.173 HD
ATOM    148  C4   DT A   6      90.595  99.136 221.588  1.00  0.00     0.250 A 
ATOM    149  O4   DT A   6      91.279  99.581 220.666  1.00  0.00    -0.268 OA
ATOM    150  C5   DT A   6      89.772  97.968 221.536  1.00  0.00     0.092 A 
ATOM    151  C2'  DT A   6      87.051  98.610 225.164  1.00  0.00     0.199 C 
ATOM    152  O2'  DT A   6      86.787  98.728 226.550  1.00  0.00    -0.388 OA
ATOM    153 2'HO  DT A   6      86.233  99.501 226.662  1.00  0.00     0.210 HD
ATOM    154  C3'  DT A   6      86.069  97.663 224.488  1.00  0.00     0.198 C 
ATOM    155  O3'  DT A   6      84.727  97.855 224.929  1.00  0.00    -0.279 OA
ATOM    156  P    DG A   7      83.763  98.864 224.130  1.00  0.00     0.408 P 
ATOM    157  OP1  DG A   7      82.397  98.708 224.695  1.00  0.00    -0.624 OA
ATOM    158  OP2  DG A   7      83.979  98.671 222.674  1.00  0.00    -0.624 OA
ATOM    159  O5'  DG A   7      84.302 100.310 224.526  1.00  0.00    -0.287 OA
ATOM    160  C5'  DG A   7      84.099 100.834 225.837  1.00  0.00     0.216 C 
ATOM    161  C4'  DG A   7      84.877 102.120 226.015  1.00  0.00     0.180 C 
ATOM    162  O4'  DG A   7      86.278 101.889 225.719  1.00  0.00    -0.353 OA
ATOM    163  C1'  DG A   7      86.864 103.100 225.271  1.00  0.00     0.262 C 
ATOM    164  N9   DG A   7      87.566 102.840 224.018  1.00  0.00    -0.293 N 
ATOM    165  C4   DG A   7      88.547 103.622 223.456  1.00  0.00     0.187 A 
ATOM    166  N3   DG A   7      89.037 104.770 223.968  1.00  0.00    -0.044 NA
ATOM    167  C2   DG A   7      89.974 105.293 223.198  1.00  0.00     0.703 A 
ATOM    168  N2   DG A   7      90.568 106.433 223.559  1.00  0.00    -0.233 N 
ATOM    169  H21  DG A   7      90.295 106.885 224.419  1.00  0.00     0.174 HD
ATOM    170  H22  DG A   7      91.280 106.848 222.972  1.00  0.00     0.174 HD
ATOM    171  N1   DG A   7      90.398 104.737 222.019  1.00  0.00    -0.153 N 
ATOM    172  H1   DG A   7      91.121 105.223 221.509  1.00  0.00     0.187 HD
ATOM    173  C6   DG A   7      89.909 103.558 221.470  1.00  0.00     0.292 A 
ATOM    174  O6   DG A   7      90.362 103.147 220.396  1.00  0.00    -0.265 OA
ATOM    175  C5   DG A   7      88.901 102.982 222.287  1.00  0.00     0.173 A 
ATOM    176  N7   DG A   7      88.158 101.821 222.116  1.00  0.00    -0.234 NA
ATOM    177  C8   DG A   7      87.381 101.781 223.164  1.00  0.00     0.214 A 
ATOM    178  C2'  DG A   7      85.750 104.141 225.138  1.00  0.00     0.199 C 
ATOM    179  O2'  DG A   7      85.743 104.947 226.301  1.00  0.00    -0.388 OA
ATOM    180 2'HO  DG A   7      85.243 105.735 226.087  1.00  0.00     0.210 HD
ATOM    181  C3'  DG A   7      84.510 103.255 225.074  1.00  0.00     0.198 C 
ATOM    182  O3'  DG A   7      83.332 103.938 225.498  1.00  0.00    -0.279 OA
ATOM    183  P    DT A   8      82.492 104.813 224.442  1.00  0.00     0.408 P 
ATOM    184  OP1  DT A   8      81.438 105.532 225.201  1.00  0.00    -0.624 OA
ATOM    185  OP2  DT A   8      82.108 103.933 223.307  1.00  0.00    -0.624 OA
ATOM    186  O5'  DT A   8      83.543 105.884 223.903  1.00  0.00    -0.287 OA
ATOM    187  C5'  DT A   8      83.559 107.220 224.405  1.00  0.00     0.216 C 
ATOM    188  C4'  DT A   8      84.946 107.813 224.281  1.00  0.00     0.180 C 
ATOM    189  O4'  DT A   8      85.897 106.758 223.979  1.00  0.00    -0.353 OA
ATOM    190  C1'  DT A   8      86.927 107.267 223.150  1.00  0.00     0.264 C 
ATOM    191  N1   DT A   8      86.981 106.458 221.924  1.00  0.00    -0.280 N 
ATOM    192  C6   DT A   8      85.995 105.543 221.626  1.00  0.00     0.104 A 
ATOM    193  C2   DT A   8      88.058 106.644 221.076  1.00  0.00     0.331 A 
ATOM    194  O2   DT A   8      88.948 107.443 221.301  1.00  0.00    -0.246 OA
ATOM    195  N3   DT A   8      88.054 105.859 219.953  1.00  0.00    -0.275 N 
ATOM    196  H3   DT A   8      88.829 105.981 219.320  1.00  0.00     0.173 HD
ATOM    197  C4   DT A   8      87.109 104.927 219.596  1.00  0.00     0.250 A 
ATOM    198  O4   DT A   8      87.250 104.296 218.549  1.00  0.00    -0.268 OA
ATOM    199  C5   DT A   8      86.027 104.793 220.520  1.00  0.00     0.092 A 
ATOM    200  C2'  DT A   8      86.639 108.748 222.898  1.00  0.00     0.199 C 
ATOM    201  O2'  DT A   8      87.349 109.515 223.853  1.00  0.00    -0.388 OA
ATOM    202 2'HO  DT A   8      86.694 109.958 224.393  1.00  0.00     0.210 HD
ATOM    203  C3'  DT A   8      85.134 108.811 223.148  1.00  0.00     0.198 C 
ATOM    204  O3'  DT A   8      84.694 110.113 223.528  1.00  0.00    -0.279 OA
ATOM    205  P    DA A   9      84.622 111.290 222.431  1.00  0.00     0.408 P 
ATOM    206  OP1  DA A   9      85.698 111.047 221.437  1.00  0.00    -0.624 OA
ATOM    207  OP2  DA A   9      84.582 112.582 223.162  1.00  0.00    -0.624 OA
ATOM    208  O5'  DA A   9      83.206 111.080 221.728  1.00  0.00    -0.287 OA
ATOM    209  C5'  DA A   9      83.062 110.239 220.583  1.00  0.00     0.216 C 
ATOM    210  C4'  DA A   9      83.397 111.006 219.324  1.00  0.00     0.180 C 
ATOM    211  O4'  DA A   9      84.792 110.755 218.998  1.00  0.00    -0.353 OA
ATOM    212  C1'  DA A   9      84.919 110.451 217.625  1.00  0.00     0.262 C 
ATOM    213  N9   DA A   9      85.271 109.036 217.500  1.00  0.00    -0.294 N 
ATOM    214  C4   DA A   9      84.421 107.996 217.203  1.00  0.00     0.167 A 
ATOM    215  N3   DA A   9      83.100 108.063 216.970  1.00  0.00    -0.222 NA
ATOM    216  C2   DA A   9      82.605 106.856 216.715  1.00  0.00     0.237 A 
ATOM    217  N1   DA A   9      83.234 105.676 216.667  1.00  0.00    -0.222 NA
ATOM    218  C6   DA A   9      84.563 105.643 216.903  1.00  0.00     0.155 A 
ATOM    219  N6   DA A   9      85.187 104.467 216.852  1.00  0.00    -0.382 N 
ATOM    220  H61  DA A   9      86.181 104.413 217.024  1.00  0.00     0.157 HD
ATOM    221  H62  DA A   9      84.660 103.635 216.632  1.00  0.00     0.157 HD
ATOM    222  C5   DA A   9      85.206 106.859 217.191  1.00  0.00     0.149 A 
ATOM    223  N7   DA A   9      86.529 107.172 217.476  1.00  0.00    -0.236 NA
ATOM    224  C8   DA A   9      86.513 108.471 217.654  1.00  0.00     0.214 A 
ATOM    225  C2'  DA A   9      83.602 110.837 216.952  1.00  0.00     0.199 C 
ATOM    226  O2'  DA A   9      83.665 112.205 216.598  1.00  0.00    -0.388 OA
ATOM    227 2'HO  DA A   9      82.791 112.463 216.305  1.00  0.00     0.210 HD
ATOM    228  C3'  DA A   9      82.609 110.598 218.083  1.00  0.00     0.198 C 
ATOM    229  O3'  DA A   9      81.424 111.378 217.933  1.00  0.00    -0.279 OA
ATOM    230  P    DG A  10      80.188 110.806 217.073  1.00  0.00     0.408 P 
ATOM    231  OP1  DG A  10      80.564 109.467 216.548  1.00  0.00    -0.624 OA
ATOM    232  OP2  DG A  10      78.954 110.954 217.885  1.00  0.00    -0.624 OA
ATOM    233  O5'  DG A  10      80.086 111.801 215.831  1.00  0.00    -0.287 OA
ATOM    234  C5'  DG A  10      79.849 113.196 216.020  1.00  0.00     0.216 C 
ATOM    235  C4'  DG A  10      80.824 114.009 215.196  1.00  0.00     0.180 C 
ATOM    236  O4'  DG A  10      81.915 113.152 214.763  1.00  0.00    -0.353 OA
ATOM    237  C1'  DG A  10      82.304 113.498 213.446  1.00  0.00     0.262 C 
ATOM    238  N9   DG A  10      82.066 112.348 212.577  1.00  0.00    -0.293 N 
ATOM    239  C4   DG A  10      82.379 112.257 211.242  1.00  0.00     0.187 A 
ATOM    240  N3   DG A  10      82.961 113.219 210.497  1.00  0.00    -0.044 NA
ATOM    241  C2   DG A  10      83.134 112.836 209.245  1.00  0.00     0.703 A 
ATOM    242  N2   DG A  10      83.698 113.672 208.368  1.00  0.00    -0.233 N 
ATOM    243  H21  DG A  10      83.984 114.590 208.675  1.00  0.00     0.174 HD
ATOM    244  H22  DG A  10      83.843 113.388 207.408  1.00  0.00     0.174 HD
ATOM    245  N1   DG A  10      82.769 111.608 208.760  1.00  0.00    -0.153 N 
ATOM    246  H1   DG A  10      82.949 111.414 207.788  1.00  0.00     0.187 HD
ATOM    247  C6   DG A  10      82.168 110.600 209.506  1.00  0.00     0.292 A 
ATOM    248  O6   DG A  10      81.875 109.528 208.965  1.00  0.00    -0.265 OA
ATOM    249  C5   DG A  10      81.973 110.997 210.856  1.00  0.00     0.173 A 
ATOM    250  N7   DG A  10      81.414 110.309 211.927  1.00  0.00    -0.234 NA
ATOM    251  C8   DG A  10      81.492 111.149 212.923  1.00  0.00     0.214 A 
ATOM    252  C2'  DG A  10      81.513 114.742 213.044  1.00  0.00     0.199 C 
ATOM    253  O2'  DG A  10      82.252 115.891 213.416  1.00  0.00    -0.388 OA
ATOM    254 2'HO  DG A  10      81.707 116.386 214.027  1.00  0.00     0.210 HD
ATOM    255  C3'  DG A  10      80.264 114.590 213.904  1.00  0.00     0.198 C 
ATOM    256  O3'  DG A  10      79.607 115.835 214.131  1.00  0.00    -0.279 OA
ATOM    257  P    DC A  11      78.245 116.179 213.345  1.00  0.00     0.408 P 
ATOM    258  OP1  DC A  11      77.677 117.402 213.964  1.00  0.00    -0.624 OA
ATOM    259  OP2  DC A  11      77.422 114.944 213.269  1.00  0.00    -0.624 OA
ATOM    260  O5'  DC A  11      78.728 116.544 211.870  1.00  0.00    -0.287 OA
ATOM    261  C5'  DC A  11      79.482 117.729 211.614  1.00  0.00     0.216 C 
ATOM    262  C4'  DC A  11      79.701 117.899 210.128  1.00  0.00     0.180 C 
ATOM    263  O4'  DC A  11      80.699 116.936 209.693  1.00  0.00    -0.353 OA
ATOM    264  C1'  DC A  11      80.293 116.342 208.473  1.00  0.00     0.264 C 
ATOM    265  N1   DC A  11      79.973 114.927 208.725  1.00  0.00    -0.278 N 
ATOM    266  C6   DC A  11      79.690 114.488 209.989  1.00  0.00     0.102 A 
ATOM    267  C2   DC A  11      79.964 114.035 207.651  1.00  0.00     0.352 A 
ATOM    268  O2   DC A  11      80.217 114.459 206.515  1.00  0.00    -0.244 OA
ATOM    269  N3   DC A  11      79.680 112.733 207.876  1.00  0.00    -0.177 NA
ATOM    270  C4   DC A  11      79.411 112.314 209.113  1.00  0.00     0.128 A 
ATOM    271  N4   DC A  11      79.140 111.021 209.286  1.00  0.00    -0.384 N 
ATOM    272  H41  DC A  11      78.931 110.662 210.206  1.00  0.00     0.157 HD
ATOM    273  H42  DC A  11      79.149 110.398 208.491  1.00  0.00     0.157 HD
ATOM    274  C5   DC A  11      79.408 113.202 210.227  1.00  0.00     0.067 A 
ATOM    275  C2'  DC A  11      79.113 117.156 207.947  1.00  0.00     0.199 C 
ATOM    276  O2'  DC A  11      79.614 118.243 207.191  1.00  0.00    -0.388 OA
ATOM    277 2'HO  DC A  11      79.220 119.037 207.554  1.00  0.00     0.210 HD
ATOM    278  C3'  DC A  11      78.483 117.631 209.250  1.00  0.00     0.198 C 
ATOM    279  O3'  DC A  11      77.692 118.802 209.071  1.00  0.00    -0.279 OA
ATOM    280  P    DT A  12      76.150 118.666 208.631  1.00  0.00     0.408 P 
ATOM    281  OP1  DT A  12      75.588 120.037 208.556  1.00  0.00    -0.624 OA
ATOM    282  OP2  DT A  12      75.502 117.652 209.502  1.00  0.00    -0.624 OA
ATOM    283  O5'  DT A  12      76.219 118.072 207.152  1.00  0.00    -0.287 OA
ATOM    284  C5'  DT A  12      76.777 118.832 206.080  1.00  0.00     0.216 C 
ATOM    285  C4'  DT A  12      76.447 118.184 204.755  1.00  0.00     0.180 C 
ATOM    286  O4'  DT A  12      77.338 117.054 204.549  1.00  0.00    -0.353 OA
ATOM    287  C1'  DT A  12      76.625 115.981 203.957  1.00  0.00     0.264 C 
ATOM    288  N1   DT A  12      76.611 114.857 204.904  1.00  0.00    -0.280 N 
ATOM    289  C6   DT A  12      76.569 115.070 206.263  1.00  0.00     0.104 A 
ATOM    290  C2   DT A  12      76.644 113.575 204.385  1.00  0.00     0.331 A 
ATOM    291  O2   DT A  12      76.685 113.344 203.191  1.00  0.00    -0.246 OA
ATOM    292  N3   DT A  12      76.628 112.572 205.319  1.00  0.00    -0.275 N 
ATOM    293  H3   DT A  12      76.645 111.629 204.959  1.00  0.00     0.173 HD
ATOM    294  C4   DT A  12      76.587 112.714 206.687  1.00  0.00     0.250 A 
ATOM    295  O4   DT A  12      76.576 111.710 207.399  1.00  0.00    -0.268 OA
ATOM    296  C5   DT A  12      76.558 114.068 207.144  1.00  0.00     0.092 A 
ATOM    297  C2'  DT A  12      75.232 116.500 203.600  1.00  0.00     0.199 C 
ATOM    298  O2'  DT A  12      75.273 117.040 202.292  1.00  0.00    -0.388 OA
ATOM    299 2'HO  DT A  12      74.570 117.688 202.237  1.00  0.00     0.210 HD
ATOM    300  C3'  DT A  12      75.047 117.594 204.645  1.00  0.00     0.198 C 
ATOM    301  O3'  DT A  12      74.093 118.574 204.246  1.00  0.00    -0.279 OA
ATOM    302  P    DC A  13      72.527 118.314 204.502  1.00  0.00     0.408 P 
ATOM    303  OP1  DC A  13      71.809 119.558 204.124  1.00  0.00    -0.624 OA
ATOM    304  OP2  DC A  13      72.362 117.759 205.871  1.00  0.00    -0.624 OA
ATOM    305  O5'  DC A  13      72.148 117.185 203.442  1.00  0.00    -0.287 OA
ATOM    306  C5'  DC A  13      71.590 115.938 203.856  1.00  0.00     0.216 C 
ATOM    307  C4'  DC A  13      72.084 114.825 202.962  1.00  0.00     0.180 C 
ATOM    308  O4'  DC A  13      73.341 114.322 203.494  1.00  0.00    -0.353 OA
ATOM    309  C1'  DC A  13      73.362 112.907 203.422  1.00  0.00     0.264 C 
ATOM    310  N1   DC A  13      73.358 112.372 204.795  1.00  0.00    -0.278 N 
ATOM    311  C6   DC A  13      73.267 113.207 205.873  1.00  0.00     0.102 A 
ATOM    312  C2   DC A  13      73.445 110.987 204.981  1.00  0.00     0.352 A 
ATOM    313  O2   DC A  13      73.532 110.250 203.988  1.00  0.00    -0.244 OA
ATOM    314  N3   DC A  13      73.433 110.488 206.235  1.00  0.00    -0.177 NA
ATOM    315  C4   DC A  13      73.342 111.312 207.280  1.00  0.00     0.128 A 
ATOM    316  C5   DC A  13      73.255 112.725 207.123  1.00  0.00     0.067 A 
ATOM    317  C2'  DC A  13      72.157 112.475 202.588  1.00  0.00     0.199 C 
ATOM    318  C3'  DC A  13      71.176 113.604 202.883  1.00  0.00     0.198 C 
ENDROOT
BRANCH 318 319
ATOM    319  O3'  DC A  13      70.193 113.748 201.862  1.00  0.00    -0.279 OA
BRANCH 319 320
ATOM    320  P    DA A  14      68.633 113.603 202.228  1.00  0.00     0.408 P 
ATOM    321  OP2  DA A  14      68.441 114.086 203.619  1.00  0.00    -0.624 OA
ATOM    322  OP1  DA A  14      67.861 114.226 201.122  1.00  0.00    -0.624 OA
BRANCH 320 323
ATOM    323  O5'  DA A  14      68.378 112.030 202.208  1.00  0.00    -0.287 OA
BRANCH 323 324
ATOM    324  C5'  DA A  14      67.919 111.339 203.369  1.00  0.00     0.216 C 
BRANCH 324 325
ATOM    325  C4'  DA A  14      69.064 110.601 204.024  1.00  0.00     0.180 C 
ATOM    326  C3'  DA A  14      68.705 109.245 204.616  1.00  0.00     0.198 C 
ATOM    327  C2'  DA A  14      69.723 109.093 205.738  1.00  0.00     0.199 C 
ATOM    328  C1'  DA A  14      69.810 110.531 206.250  1.00  0.00     0.262 C 
ATOM    329  O4'  DA A  14      69.545 111.384 205.151  1.00  0.00    -0.353 OA
BRANCH 326 330
ATOM    330  O3'  DA A  14      68.807 108.203 203.650  1.00  0.00    -0.279 OA
BRANCH 330 331
ATOM    331  P    DG A  15      70.018 108.212 202.590  1.00  0.00     0.408 P 
ATOM    332  OP2  DG A  15      70.648 109.556 202.614  1.00  0.00    -0.624 OA
ATOM    333  OP1  DG A  15      70.846 107.009 202.857  1.00  0.00    -0.624 OA
BRANCH 331 334
ATOM    334  O5'  DG A  15      69.300 108.024 201.179  1.00  0.00    -0.287 OA
BRANCH 334 335
ATOM    335  C5'  DG A  15      67.904 108.278 201.022  1.00  0.00     0.216 C 
BRANCH 335 336
ATOM    336  C4'  DG A  15      67.151 106.978 200.842  1.00  0.00     0.180 C 
ATOM    337  C3'  DG A  15      65.841 107.075 200.070  1.00  0.00     0.198 C 
ATOM    338  C2'  DG A  15      65.090 105.849 200.580  1.00  0.00     0.199 C 
ATOM    339  C1'  DG A  15      65.456 105.899 202.061  1.00  0.00     0.262 C 
ATOM    340  O4'  DG A  15      66.750 106.475 202.149  1.00  0.00    -0.353 OA
BRANCH 337 341
ATOM    341  O3'  DG A  15      66.045 107.144 198.649  1.00  0.00    -0.279 OA
BRANCH 341 342
ATOM    342  P    DT A  16      64.795 107.158 197.628  1.00  0.00     0.408 P 
ATOM    343  OP2  DT A  16      64.369 105.747 197.447  1.00  0.00    -0.624 OA
ATOM    344  OP1  DT A  16      63.804 108.162 198.092  1.00  0.00    -0.624 OA
BRANCH 342 345
ATOM    345  O5'  DT A  16      65.423 107.658 196.250  1.00  0.00    -0.287 OA
BRANCH 345 346
ATOM    346  C5'  DT A  16      65.825 106.735 195.239  1.00  0.00     0.216 C 
BRANCH 346 347
ATOM    347  C4'  DT A  16      67.329 106.587 195.236  1.00  0.00     0.180 C 
ATOM    348  C3'  DT A  16      67.900 105.720 194.122  1.00  0.00     0.198 C 
ATOM    349  C2'  DT A  16      69.217 105.238 194.721  1.00  0.00     0.199 C 
ATOM    350  C1'  DT A  16      68.833 105.062 196.191  1.00  0.00     0.264 C 
ATOM    351  O4'  DT A  16      67.738 105.919 196.458  1.00  0.00    -0.353 OA
BRANCH 348 352
ATOM    352  O3'  DT A  16      68.096 106.461 192.919  1.00  0.00    -0.279 OA
BRANCH 352 353
ATOM    353  P    DT A  17      67.859 105.754 191.493  1.00  0.00     0.408 P 
ATOM    354  OP2  DT A  17      66.809 104.715 191.640  1.00  0.00    -0.624 OA
ATOM    355  OP1  DT A  17      67.680 106.839 190.495  1.00  0.00    -0.624 OA
BRANCH 353 356
ATOM    356  O5'  DT A  17      69.247 105.032 191.176  1.00  0.00    -0.287 OA
BRANCH 356 357
ATOM    357  C5'  DT A  17      69.433 103.635 191.413  1.00  0.00     0.216 C 
BRANCH 357 358
ATOM    358  C4'  DT A  17      70.559 103.101 190.555  1.00  0.00     0.180 C 
ATOM    359  C3'  DT A  17      71.132 101.758 190.997  1.00  0.00     0.198 C 
ATOM    360  C2'  DT A  17      72.280 102.164 191.916  1.00  0.00     0.199 C 
ATOM    361  C1'  DT A  17      72.793 103.415 191.209  1.00  0.00     0.264 C 
ATOM    362  O4'  DT A  17      71.672 104.037 190.611  1.00  0.00    -0.353 OA
BRANCH 359 363
ATOM    363  O3'  DT A  17      71.570 100.994 189.874  1.00  0.00    -0.279 OA
BRANCH 363 364
ATOM    364  P    DG A  18      71.111  99.459 189.719  1.00  0.00     0.408 P 
ATOM    365  OP2  DG A  18      70.991  99.157 188.269  1.00  0.00    -0.624 OA
ATOM    366  OP1  DG A  18      71.999  98.627 190.572  1.00  0.00    -0.624 OA
BRANCH 364 367
ATOM    367  O5'  DG A  18      69.651  99.430 190.359  1.00  0.00    -0.287 OA
BRANCH 367 368
ATOM    368  C5'  DG A  18      69.305  98.471 191.356  1.00  0.00     0.216 C 
BRANCH 368 369
ATOM    369  C4'  DG A  18      69.294  99.122 192.721  1.00  0.00     0.180 C 
ATOM    370  O4'  DG A  18      68.587 100.388 192.622  1.00  0.00    -0.353 OA
ATOM    371  C1'  DG A  18      67.348 100.301 193.301  1.00  0.00     0.262 C 
ATOM    372  C2'  DG A  18      67.126  98.834 193.663  1.00  0.00     0.199 C 
ATOM    373  C3'  DG A  18      68.562  98.344 193.809  1.00  0.00     0.198 C 
BRANCH 371 374
ATOM    374  N9   DG A  18      66.314 100.858 192.435  1.00  0.00    -0.293 N 
ATOM    375  C4   DG A  18      65.339 101.756 192.799  1.00  0.00     0.187 A 
ATOM    376  C5   DG A  18      64.605 101.982 191.654  1.00  0.00     0.173 A 
ATOM    377  N3   DG A  18      65.166 102.283 194.028  1.00  0.00    -0.044 NA
ATOM    378  C6   DG A  18      63.507 102.881 191.712  1.00  0.00     0.292 A 
ATOM    379  N7   DG A  18      65.108 101.242 190.591  1.00  0.00    -0.234 NA
ATOM    380  N1   DG A  18      63.350 103.412 192.988  1.00  0.00    -0.153 N 
ATOM    381  O6   DG A  18      62.734 103.216 190.808  1.00  0.00    -0.265 OA
ATOM    382  C2   DG A  18      64.142 103.117 194.067  1.00  0.00     0.703 A 
ATOM    383  H1   DG A  18      62.592 104.062 193.122  1.00  0.00     0.187 HD
ATOM    384  C8   DG A  18      66.118 100.594 191.102  1.00  0.00     0.214 A 
BRANCH 382 385
ATOM    385  N2   DG A  18      63.831 103.729 195.212  1.00  0.00    -0.233 N 
ATOM    386  H21  DG A  18      64.437 103.615 196.011  1.00  0.00     0.174 HD
ATOM    387  H22  DG A  18      63.000 104.298 195.279  1.00  0.00     0.174 HD
ENDBRANCH 382 385
ENDBRANCH 371 374
BRANCH 372 388
ATOM    388  O2'  DG A  18      66.435  98.771 194.896  1.00  0.00    -0.388 OA
ATOM    389 2'HO  DG A  18      65.510  98.934 194.704  1.00  0.00     0.210 HD
ENDBRANCH 372 388
BRANCH 373 390
ATOM    390  O3'  DG A  18      69.099  98.619 195.102  1.00  0.00    -0.279 OA
BRANCH 390 391
ATOM    391  P    DG A  19      70.124  97.580 195.780  1.00  0.00     0.408 P 
ATOM    392  OP1  DG A  19      70.286  96.445 194.836  1.00  0.00    -0.624 OA
ATOM    393  OP2  DG A  19      69.676  97.315 197.172  1.00  0.00    -0.624 OA
BRANCH 391 394
ATOM    394  O5'  DG A  19      71.507  98.374 195.826  1.00  0.00    -0.287 OA
BRANCH 394 395
ATOM    395  C5'  DG A  19      72.422  98.205 196.909  1.00  0.00     0.216 C 
BRANCH 395 396
ATOM    396  C4'  DG A  19      72.857  99.552 197.436  1.00  0.00     0.180 C 
ATOM    397  O4'  DG A  19      71.674 100.279 197.875  1.00  0.00    -0.353 OA
ATOM    398  C1'  DG A  19      71.785 100.589 199.249  1.00  0.00     0.262 C 
ATOM    399  C2'  DG A  19      72.831  99.639 199.826  1.00  0.00     0.199 C 
ATOM    400  C3'  DG A  19      73.788  99.504 198.647  1.00  0.00     0.198 C 
BRANCH 398 401
ATOM    401  N9   DG A  19      70.462 100.470 199.852  1.00  0.00    -0.293 N 
ATOM    402  C4   DG A  19      69.705 101.495 200.368  1.00  0.00     0.187 A 
ATOM    403  N3   DG A  19      70.057 102.797 200.410  1.00  0.00    -0.044 NA
ATOM    404  C5   DG A  19      68.543 100.902 200.817  1.00  0.00     0.173 A 
ATOM    405  C2   DG A  19      69.119 103.543 200.964  1.00  0.00     0.703 A 
ATOM    406  N1   DG A  19      67.930 103.055 201.441  1.00  0.00    -0.153 N 
ATOM    407  H1   DG A  19      67.279 103.708 201.846  1.00  0.00     0.187 HD
ATOM    408  C6   DG A  19      67.545 101.719 201.411  1.00  0.00     0.292 A 
ATOM    409  O6   DG A  19      66.448 101.386 201.871  1.00  0.00    -0.265 OA
ATOM    410  N7   DG A  19      68.569  99.532 200.590  1.00  0.00    -0.234 NA
ATOM    411  C8   DG A  19      69.723  99.324 200.018  1.00  0.00     0.214 A 
BRANCH 405 412
ATOM    412  N2   DG A  19      69.305 104.860 201.085  1.00  0.00    -0.233 N 
ATOM    413  H21  DG A  19      68.503 105.456 201.233  1.00  0.00     0.174 HD
ATOM    414  H22  DG A  19      70.231 105.256 201.030  1.00  0.00     0.174 HD
ENDBRANCH 405 412
ENDBRANCH 398 401
BRANCH 399 415
ATOM    415  O2'  DG A  19      73.463 100.270 200.924  1.00  0.00    -0.388 OA
ATOM    416 2'HO  DG A  19      74.400 100.282 200.727  1.00  0.00     0.210 HD
ENDBRANCH 399 415
BRANCH 400 417
ATOM    417  O3'  DG A  19      74.747 100.558 198.609  1.00  0.00    -0.279 OA
BRANCH 417 418
ATOM    418  P    DG A  20      76.293 100.247 198.927  1.00  0.00     0.408 P 
ATOM    419  OP2  DG A  20      76.535 100.494 200.371  1.00  0.00    -0.624 OA
ATOM    420  OP1  DG A  20      76.598  98.912 198.350  1.00  0.00    -0.624 OA
BRANCH 418 421
ATOM    421  O5'  DG A  20      77.089 101.345 198.091  1.00  0.00    -0.287 OA
BRANCH 421 422
ATOM    422  C5'  DG A  20      77.891 102.328 198.744  1.00  0.00     0.216 C 
BRANCH 422 423
ATOM    423  C4'  DG A  20      77.539 103.708 198.238  1.00  0.00     0.180 C 
ATOM    424  C3'  DG A  20      76.048 104.001 198.113  1.00  0.00     0.198 C 
ATOM    425  C2'  DG A  20      76.004 105.031 196.991  1.00  0.00     0.199 C 
ATOM    426  C1'  DG A  20      77.105 104.507 196.070  1.00  0.00     0.262 C 
ATOM    427  O4'  DG A  20      78.063 103.859 196.889  1.00  0.00    -0.353 OA
BRANCH 424 428
ATOM    428  O3'  DG A  20      75.504 104.503 199.330  1.00  0.00    -0.279 OA
BRANCH 428 429
ATOM    429  P    DA A  21      74.083 103.961 199.854  1.00  0.00     0.408 P 
ATOM    430  OP2  DA A  21      73.263 103.587 198.674  1.00  0.00    -0.624 OA
ATOM    431  OP1  DA A  21      74.362 102.947 200.904  1.00  0.00    -0.624 OA
BRANCH 429 432
ATOM    432  O5'  DA A  21      73.417 105.225 200.559  1.00  0.00    -0.287 OA
BRANCH 432 433
ATOM    433  C5'  DA A  21      72.357 105.949 199.933  1.00  0.00     0.216 C 
BRANCH 433 434
ATOM    434  C4'  DA A  21      72.899 106.787 198.798  1.00  0.00     0.180 C 
ATOM    435  O4'  DA A  21      71.781 107.338 198.050  1.00  0.00    -0.353 OA
ATOM    436  C1'  DA A  21      72.093 108.650 197.620  1.00  0.00     0.262 C 
ATOM    437  C2'  DA A  21      73.533 108.953 198.037  1.00  0.00     0.199 C 
ATOM    438  C3'  DA A  21      73.717 108.002 199.215  1.00  0.00     0.198 C 
BRANCH 436 439
ATOM    439  N9   DA A  21      71.115 109.569 198.199  1.00  0.00    -0.294 N 
ATOM    440  C8   DA A  21      71.243 110.333 199.332  1.00  0.00     0.214 A 
ATOM    441  N7   DA A  21      70.190 111.069 199.595  1.00  0.00    -0.236 NA
ATOM    442  C5   DA A  21      69.309 110.768 198.566  1.00  0.00     0.149 A 
ATOM    443  C6   DA A  21      68.010 111.220 198.268  1.00  0.00     0.155 A 
ATOM    444  C4   DA A  21      69.864 109.844 197.701  1.00  0.00     0.167 A 
ATOM    445  N1   DA A  21      67.408 110.720 197.169  1.00  0.00    -0.222 NA
ATOM    446  C2   DA A  21      68.072 109.828 196.424  1.00  0.00     0.237 A 
ATOM    447  N3   DA A  21      69.293 109.326 196.599  1.00  0.00    -0.222 NA
BRANCH 443 448
ATOM    448  N6   DA A  21      67.348 112.109 199.008  1.00  0.00    -0.382 N 
ATOM    449  H61  DA A  21      66.533 111.821 199.531  1.00  0.00     0.157 HD
ATOM    450  H62  DA A  21      67.667 113.066 199.044  1.00  0.00     0.157 HD
ENDBRANCH 443 448
ENDBRANCH 436 439
BRANCH 437 451
ATOM    451  O2'  DA A  21      74.393 108.612 196.968  1.00  0.00    -0.388 OA
ATOM    452 2'HO  DA A  21      74.409 107.654 196.927  1.00  0.00     0.210 HD
ENDBRANCH 437 451
BRANCH 438 453
ATOM    453  O3'  DA A  21      75.085 107.662 199.425  1.00  0.00    -0.279 OA
BRANCH 453 454
ATOM    454  P    DG A  22      75.871 108.249 200.702  1.00  0.00     0.408 P 
ATOM    455  OP2  DG A  22      75.181 109.484 201.157  1.00  0.00    -0.624 OA
ATOM    456  OP1  DG A  22      76.061 107.125 201.652  1.00  0.00    -0.624 OA
BRANCH 454 457
ATOM    457  O5'  DG A  22      77.301 108.650 200.123  1.00  0.00    -0.287 OA
BRANCH 457 458
ATOM    458  C5'  DG A  22      78.435 107.800 200.294  1.00  0.00     0.216 C 
BRANCH 458 459
ATOM    459  C4'  DG A  22      79.599 108.594 200.840  1.00  0.00     0.180 C 
ATOM    460  O4'  DG A  22      80.132 109.434 199.774  1.00  0.00    -0.353 OA
ATOM    461  C1'  DG A  22      80.368 110.740 200.270  1.00  0.00     0.262 C 
ATOM    462  C2'  DG A  22      80.326 110.639 201.792  1.00  0.00     0.199 C 
ATOM    463  C3'  DG A  22      79.268 109.561 201.971  1.00  0.00     0.198 C 
BRANCH 461 464
ATOM    464  N9   DG A  22      79.359 111.637 199.712  1.00  0.00    -0.293 N 
ATOM    465  C8   DG A  22      78.182 112.028 200.303  1.00  0.00     0.214 A 
ATOM    466  N7   DG A  22      77.482 112.844 199.564  1.00  0.00    -0.234 NA
ATOM    467  C5   DG A  22      78.242 113.001 198.412  1.00  0.00     0.173 A 
ATOM    468  C4   DG A  22      79.404 112.261 198.488  1.00  0.00     0.187 A 
ATOM    469  C6   DG A  22      77.996 113.769 197.245  1.00  0.00     0.292 A 
ATOM    470  N3   DG A  22      80.393 112.151 197.576  1.00  0.00    -0.044 NA
ATOM    471  C2   DG A  22      80.149 112.872 196.496  1.00  0.00     0.703 A 
ATOM    472  N1   DG A  22      79.027 113.640 196.321  1.00  0.00    -0.153 N 
ATOM    473  H1   DG A  22      78.937 114.150 195.457  1.00  0.00     0.187 HD
ATOM    474  O6   DG A  22      77.027 114.493 196.987  1.00  0.00    -0.265 OA
BRANCH 471 475
ATOM    475  N2   DG A  22      81.027 112.879 195.489  1.00  0.00    -0.233 N 
ATOM    476  H21  DG A  22      80.698 112.731 194.545  1.00  0.00     0.174 HD
ATOM    477  H22  DG A  22      82.008 113.034 195.668  1.00  0.00     0.174 HD
ENDBRANCH 471 475
ENDBRANCH 461 464
BRANCH 462 478
ATOM    478  O2'  DG A  22      81.590 110.199 202.254  1.00  0.00    -0.388 OA
ATOM    479 2'HO  DG A  22      82.181 110.225 201.501  1.00  0.00     0.210 HD
ENDBRANCH 462 478
BRANCH 463 480
ATOM    480  O3'  DG A  22      79.343 108.928 203.247  1.00  0.00    -0.279 OA
BRANCH 480 481
ATOM    481  P    DA A  23      78.419 109.452 204.455  1.00  0.00     0.408 P 
ATOM    482  OP2  DA A  23      79.164 110.494 205.206  1.00  0.00    -0.624 OA
ATOM    483  OP1  DA A  23      77.086 109.773 203.885  1.00  0.00    -0.624 OA
BRANCH 481 484
ATOM    484  O5'  DA A  23      78.258 108.179 205.400  1.00  0.00    -0.287 OA
BRANCH 484 485
ATOM    485  C5'  DA A  23      79.143 107.067 205.293  1.00  0.00     0.216 C 
BRANCH 485 486
ATOM    486  C4'  DA A  23      80.239 107.168 206.329  1.00  0.00     0.180 C 
ATOM    487  O4'  DA A  23      79.642 107.123 207.656  1.00  0.00    -0.353 OA
ATOM    488  C1'  DA A  23      80.438 106.320 208.511  1.00  0.00     0.262 C 
ATOM    489  C2'  DA A  23      81.744 106.043 207.769  1.00  0.00     0.199 C 
ATOM    490  C3'  DA A  23      81.252 106.031 206.328  1.00  0.00     0.198 C 
BRANCH 488 491
ATOM    491  N9   DA A  23      79.682 105.111 208.845  1.00  0.00    -0.294 N 
ATOM    492  C8   DA A  23      78.531 104.654 208.252  1.00  0.00     0.214 A 
ATOM    493  N7   DA A  23      78.077 103.538 208.771  1.00  0.00    -0.236 NA
ATOM    494  C5   DA A  23      78.993 103.239 209.771  1.00  0.00     0.149 A 
ATOM    495  C6   DA A  23      79.077 102.179 210.689  1.00  0.00     0.155 A 
ATOM    496  C4   DA A  23      79.988 104.199 209.826  1.00  0.00     0.167 A 
ATOM    497  N1   DA A  23      80.116 102.176 211.552  1.00  0.00    -0.222 NA
ATOM    498  C2   DA A  23      81.005 103.176 211.487  1.00  0.00     0.237 A 
ATOM    499  N3   DA A  23      81.033 104.227 210.670  1.00  0.00    -0.222 NA
BRANCH 495 500
ATOM    500  N6   DA A  23      78.191 101.185 210.754  1.00  0.00    -0.382 N 
ATOM    501  H62  DA A  23      77.475 101.188 211.467  1.00  0.00     0.157 HD
ATOM    502  H61  DA A  23      78.241 100.427 210.090  1.00  0.00     0.157 HD
ENDBRANCH 495 500
ENDBRANCH 488 491
BRANCH 489 503
ATOM    503  O2'  DA A  23      82.634 107.119 208.001  1.00  0.00    -0.388 OA
ATOM    504 2'HO  DA A  23      82.096 107.877 208.230  1.00  0.00     0.210 HD
ENDBRANCH 489 503
BRANCH 490 505
ATOM    505  O3'  DA A  23      82.299 106.255 205.388  1.00  0.00    -0.279 OA
BRANCH 505 506
ATOM    506  P    DG A  24      82.883 107.740 205.181  1.00  0.00     0.408 P 
ATOM    507  OP1  DG A  24      84.273 107.743 205.703  1.00  0.00    -0.624 OA
ATOM    508  OP2  DG A  24      81.899 108.719 205.710  1.00  0.00    -0.624 OA
BRANCH 506 509
ATOM    509  O5'  DG A  24      82.949 107.908 203.598  1.00  0.00    -0.287 OA
BRANCH 509 510
ATOM    510  C5'  DG A  24      84.178 107.745 202.891  1.00  0.00     0.216 C 
BRANCH 510 511
ATOM    511  C4'  DG A  24      84.031 106.681 201.831  1.00  0.00     0.180 C 
ATOM    512  O4'  DG A  24      82.943 107.046 200.941  1.00  0.00    -0.353 OA
ATOM    513  C1'  DG A  24      83.258 106.656 199.616  1.00  0.00     0.262 C 
ATOM    514  C2'  DG A  24      84.610 105.940 199.643  1.00  0.00     0.199 C 
ATOM    515  C3'  DG A  24      85.232 106.511 200.913  1.00  0.00     0.198 C 
BRANCH 513 516
ATOM    516  N9   DG A  24      83.243 107.846 198.771  1.00  0.00    -0.293 N 
ATOM    517  C4   DG A  24      82.939 107.893 197.433  1.00  0.00     0.187 A 
ATOM    518  N3   DG A  24      82.605 106.841 196.658  1.00  0.00    -0.044 NA
ATOM    519  C5   DG A  24      83.049 109.221 197.079  1.00  0.00     0.173 A 
ATOM    520  C2   DG A  24      82.368 107.202 195.410  1.00  0.00     0.703 A 
ATOM    521  N1   DG A  24      82.451 108.493 194.957  1.00  0.00    -0.153 N 
ATOM    522  H1   DG A  24      82.251 108.662 193.983  1.00  0.00     0.187 HD
ATOM    523  C6   DG A  24      82.790 109.594 195.735  1.00  0.00     0.292 A 
ATOM    524  O6   DG A  24      82.833 110.717 195.223  1.00  0.00    -0.265 OA
ATOM    525  N7   DG A  24      83.420 109.994 198.171  1.00  0.00    -0.234 NA
ATOM    526  C8   DG A  24      83.526 109.136 199.149  1.00  0.00     0.214 A 
BRANCH 520 527
ATOM    527  N2   DG A  24      82.024 106.281 194.507  1.00  0.00    -0.233 N 
ATOM    528  H21  DG A  24      82.212 106.455 193.531  1.00  0.00     0.174 HD
ATOM    529  H22  DG A  24      81.575 105.423 194.793  1.00  0.00     0.174 HD
ENDBRANCH 520 527
ENDBRANCH 513 516
BRANCH 514 530
ATOM    530  O2'  DG A  24      84.383 104.548 199.769  1.00  0.00    -0.388 OA
ATOM    531 2'HO  DG A  24      83.460 104.402 199.561  1.00  0.00     0.210 HD
ENDBRANCH 514 530
BRANCH 515 532
ATOM    532  O3'  DG A  24      86.200 105.636 201.484  1.00  0.00    -0.279 OA
BRANCH 532 533
ATOM    533  P    DC A  25      85.824 104.769 202.784  1.00  0.00     0.408 P 
ATOM    534  OP2  DC A  25      86.046 105.614 203.985  1.00  0.00    -0.624 OA
ATOM    535  OP1  DC A  25      84.484 104.178 202.540  1.00  0.00    -0.624 OA
BRANCH 533 536
ATOM    536  O5'  DC A  25      86.903 103.597 202.788  1.00  0.00    -0.287 OA
BRANCH 536 537
ATOM    537  C5'  DC A  25      88.293 103.874 202.962  1.00  0.00     0.216 C 
BRANCH 537 538
ATOM    538  C4'  DC A  25      88.736 103.463 204.347  1.00  0.00     0.180 C 
ATOM    539  O4'  DC A  25      87.591 102.922 205.057  1.00  0.00    -0.353 OA
ATOM    540  C1'  DC A  25      87.997 101.831 205.863  1.00  0.00     0.264 C 
ATOM    541  C2'  DC A  25      89.516 101.693 205.745  1.00  0.00     0.199 C 
ATOM    542  C3'  DC A  25      89.787 102.361 204.400  1.00  0.00     0.198 C 
ATOM    543  O2'  DC A  25      90.119 102.417 206.800  1.00  0.00    -0.388 OA
ATOM    544  O3'  DC A  25      91.109 102.889 204.334  1.00  0.00    -0.279 OA
ATOM    545  P    DG A  26      91.772 103.228 202.906  1.00  0.00     0.408 P 
ATOM    546  OP1  DG A  26      92.203 104.648 202.955  1.00  0.00    -0.624 OA
ATOM    547  OP2  DG A  26      90.869 102.774 201.821  1.00  0.00    -0.624 OA
ATOM    548  O5'  DG A  26      93.084 102.324 202.863  1.00  0.00    -0.287 OA
ATOM    549  C5'  DG A  26      93.826 102.039 204.050  1.00  0.00     0.216 C 
ATOM    550  C4'  DG A  26      94.059 100.550 204.171  1.00  0.00     0.180 C 
ATOM    551  O4'  DG A  26      92.789  99.906 204.465  1.00  0.00    -0.353 OA
ATOM    552  C3'  DG A  26      94.567  99.868 202.906  1.00  0.00     0.198 C 
ATOM    553  C1'  DG A  26      92.659  98.724 203.698  1.00  0.00     0.262 C 
ATOM    554  N9   DG A  26      91.560  98.912 202.754  1.00  0.00    -0.293 N 
ATOM    555  C2'  DG A  26      94.010  98.455 203.037  1.00  0.00     0.199 C 
ATOM    556  C8   DG A  26      91.497  99.814 201.721  1.00  0.00     0.214 A 
ATOM    557  C4   DG A  26      90.375  98.216 202.732  1.00  0.00     0.187 A 
ATOM    558  N7   DG A  26      90.380  99.754 201.052  1.00  0.00    -0.234 NA
ATOM    559  C5   DG A  26      89.658  98.748 201.679  1.00  0.00     0.173 A 
ATOM    560  C6   DG A  26      88.367  98.230 201.402  1.00  0.00     0.292 A 
ATOM    561  N1   DG A  26      88.023  97.212 202.284  1.00  0.00    -0.153 N 
ATOM    562  O6   DG A  26      87.572  98.570 200.520  1.00  0.00    -0.265 OA
ATOM    563  C2   DG A  26      88.816  96.753 203.303  1.00  0.00     0.703 A 
ATOM    564  H1   DG A  26      87.121  96.780 202.162  1.00  0.00     0.187 HD
ATOM    565  N2   DG A  26      88.307  95.764 204.042  1.00  0.00    -0.233 N 
ATOM    566  N3   DG A  26      90.018  97.226 203.578  1.00  0.00    -0.044 NA
ATOM    567  H21  DG A  26      88.856  95.390 204.806  1.00  0.00     0.174 HD
ATOM    568  H22  DG A  26      87.392  95.387 203.844  1.00  0.00     0.174 HD
ATOM    569  O2'  DG A  26      94.798  97.675 203.914  1.00  0.00    -0.388 OA
ATOM    570 2'HO  DG A  26      95.691  98.020 203.862  1.00  0.00     0.210 HD
ATOM    571  O3'  DG A  26      95.990  99.883 202.835  1.00  0.00    -0.279 OA
ATOM    572  P    DC A  27      96.720 100.125 201.421  1.00  0.00     0.408 P 
ATOM    573  O5'  DC A  27      96.610  98.716 200.682  1.00  0.00    -0.287 OA
ATOM    574  OP1  DC A  27      98.152 100.397 201.702  1.00  0.00    -0.624 OA
ATOM    575  OP2  DC A  27      95.925 101.111 200.645  1.00  0.00    -0.624 OA
ATOM    576  C5'  DC A  27      97.628  97.724 200.825  1.00  0.00     0.216 C 
ATOM    577  C4'  DC A  27      97.007  96.352 200.964  1.00  0.00     0.180 C 
ATOM    578  O4'  DC A  27      95.611  96.489 201.348  1.00  0.00    -0.353 OA
ATOM    579  C3'  DC A  27      96.962  95.524 199.688  1.00  0.00     0.198 C 
ATOM    580  C1'  DC A  27      94.838  95.488 200.705  1.00  0.00     0.264 C 
ATOM    581  N1   DC A  27      93.858  96.145 199.823  1.00  0.00    -0.278 N 
ATOM    582  C2'  DC A  27      95.807  94.571 199.961  1.00  0.00     0.199 C 
ATOM    583  C2   DC A  27      92.859  95.368 199.227  1.00  0.00     0.352 A 
ATOM    584  C6   DC A  27      93.917  97.491 199.586  1.00  0.00     0.102 A 
ATOM    585  N3   DC A  27      91.954  95.962 198.420  1.00  0.00    -0.177 NA
ATOM    586  O2   DC A  27      92.829  94.150 199.453  1.00  0.00    -0.244 OA
ATOM    587  C4   DC A  27      92.018  97.275 198.198  1.00  0.00     0.128 A 
ATOM    588  N4   DC A  27      91.101  97.814 197.397  1.00  0.00    -0.384 N 
ATOM    589  C5   DC A  27      93.026  98.092 198.788  1.00  0.00     0.067 A 
ATOM    590  H42  DC A  27      90.391  97.225 196.985  1.00  0.00     0.157 HD
ATOM    591  H41  DC A  27      91.112  98.806 197.203  1.00  0.00     0.157 HD
ATOM    592  O2'  DC A  27      96.199  93.524 200.829  1.00  0.00    -0.388 OA
ATOM    593 2'HO  DC A  27      97.154  93.537 200.866  1.00  0.00     0.210 HD
ATOM    594  O3'  DC A  27      98.191  94.842 199.456  1.00  0.00    -0.279 OA
ATOM    595  P    DT A  28      98.590  94.403 197.961  1.00  0.00     0.408 P 
ATOM    596  OP1  DT A  28      99.978  93.876 198.008  1.00  0.00    -0.624 OA
ATOM    597  OP2  DT A  28      98.260  95.519 197.038  1.00  0.00    -0.624 OA
ATOM    598  O5'  DT A  28      97.609  93.188 197.642  1.00  0.00    -0.287 OA
ATOM    599  C5'  DT A  28      97.620  92.006 198.441  1.00  0.00     0.216 C 
ATOM    600  C4'  DT A  28      96.619  91.008 197.909  1.00  0.00     0.180 C 
ATOM    601  O4'  DT A  28      95.275  91.507 198.154  1.00  0.00    -0.353 OA
ATOM    602  C3'  DT A  28      96.660  90.768 196.407  1.00  0.00     0.198 C 
ATOM    603  C1'  DT A  28      94.434  91.170 197.065  1.00  0.00     0.264 C 
ATOM    604  C2'  DT A  28      95.244  90.283 196.120  1.00  0.00     0.199 C 
ATOM    605  N1   DT A  28      93.957  92.413 196.442  1.00  0.00    -0.280 N 
ATOM    606  O2'  DT A  28      95.077  88.934 196.511  1.00  0.00    -0.388 OA
ATOM    607 2'HO  DT A  28      95.946  88.599 196.736  1.00  0.00     0.210 HD
ATOM    608  C2   DT A  28      92.776  92.359 195.724  1.00  0.00     0.331 A 
ATOM    609  C6   DT A  28      94.659  93.591 196.565  1.00  0.00     0.104 A 
ATOM    610  N3   DT A  28      92.382  93.549 195.169  1.00  0.00    -0.275 N 
ATOM    611  O2   DT A  28      92.126  91.339 195.590  1.00  0.00    -0.246 OA
ATOM    612  C4   DT A  28      93.031  94.759 195.254  1.00  0.00     0.250 A 
ATOM    613  H3   DT A  28      91.523  93.528 194.640  1.00  0.00     0.173 HD
ATOM    614  O4   DT A  28      92.545  95.746 194.703  1.00  0.00    -0.268 OA
ATOM    615  C5   DT A  28      94.243  94.733 196.010  1.00  0.00     0.092 A 
ATOM    616  O3'  DT A  28      97.649  89.808 196.048  1.00  0.00    -0.279 OA
ATOM    617  P    DT A  29      98.200  89.755 194.538  1.00  0.00     0.408 P 
ATOM    618  OP1  DT A  29      99.294  88.752 194.498  1.00  0.00    -0.624 OA
ATOM    619  OP2  DT A  29      98.461  91.145 194.083  1.00  0.00    -0.624 OA
ATOM    620  O5'  DT A  29      96.971  89.184 193.697  1.00  0.00    -0.287 OA
ATOM    621  C5'  DT A  29      96.384  87.924 194.019  1.00  0.00     0.216 C 
ATOM    622  C4'  DT A  29      95.270  87.603 193.048  1.00  0.00     0.180 C 
ATOM    623  C3'  DT A  29      95.559  87.905 191.586  1.00  0.00     0.198 C 
ATOM    624  O4'  DT A  29      94.115  88.432 193.349  1.00  0.00    -0.353 OA
ATOM    625  O3'  DT A  29      96.317  86.868 190.969  1.00  0.00    -0.279 OA
ATOM    626  C2'  DT A  29      94.156  88.031 191.008  1.00  0.00     0.199 C 
ATOM    627  P    DC A  30      97.252  87.205 189.704  1.00  0.00     0.408 P 
ATOM    628  OP1  DC A  30      98.023  85.979 189.382  1.00  0.00    -0.624 OA
ATOM    629  O5'  DC A  30      96.217  87.467 188.521  1.00  0.00    -0.287 OA
ATOM    630  OP2  DC A  30      97.972  88.475 189.975  1.00  0.00    -0.624 OA
ATOM    631  C5'  DC A  30      95.231  86.495 188.178  1.00  0.00     0.216 C 
ATOM    632  C4'  DC A  30      94.218  87.093 187.231  1.00  0.00     0.180 C 
ATOM    633  O4'  DC A  30      93.450  88.109 187.930  1.00  0.00    -0.353 OA
ATOM    634  C3'  DC A  30      94.796  87.834 186.036  1.00  0.00     0.198 C 
ATOM    635  C1'  DC A  30      93.115  89.153 187.030  1.00  0.00     0.264 C 
ATOM    636  C2'  DC A  30      93.654  88.765 185.653  1.00  0.00     0.199 C 
ATOM    637  N1   DC A  30      93.678  90.414 187.545  1.00  0.00    -0.278 N 
ATOM    638  O2'  DC A  30      92.639  88.072 184.949  1.00  0.00    -0.388 OA
ATOM    639 2'HO  DC A  30      93.041  87.278 184.595  1.00  0.00     0.210 HD
ATOM    640  C2   DC A  30      93.090  91.620 187.156  1.00  0.00     0.352 A 
ATOM    641  C6   DC A  30      94.756  90.413 188.385  1.00  0.00     0.102 A 
ATOM    642  N3   DC A  30      93.598  92.784 187.618  1.00  0.00    -0.177 NA
ATOM    643  O2   DC A  30      92.114  91.594 186.394  1.00  0.00    -0.244 OA
ATOM    644  C4   DC A  30      94.647  92.772 188.441  1.00  0.00     0.128 A 
ATOM    645  N4   DC A  30      95.110  93.944 188.873  1.00  0.00    -0.384 N 
ATOM    646  C5   DC A  30      95.267  91.558 188.856  1.00  0.00     0.067 A 
ATOM    647  H42  DC A  30      94.662  94.799 188.573  1.00  0.00     0.157 HD
ATOM    648  H41  DC A  30      95.902  93.981 189.497  1.00  0.00     0.157 HD
ATOM    649  O3'  DC A  30      95.156  86.944 184.983  1.00  0.00    -0.279 OA
ATOM    650  P    DA A  31      96.311  87.361 183.944  1.00  0.00     0.408 P 
ATOM    651  OP1  DA A  31      96.635  86.158 183.136  1.00  0.00    -0.624 OA
ATOM    652  O5'  DA A  31      95.604  88.424 182.991  1.00  0.00    -0.287 OA
ATOM    653  OP2  DA A  31      97.391  88.055 184.693  1.00  0.00    -0.624 OA
ATOM    654  C5'  DA A  31      94.466  88.066 182.208  1.00  0.00     0.216 C 
ATOM    655  C4'  DA A  31      93.995  89.251 181.400  1.00  0.00     0.180 C 
ATOM    656  O4'  DA A  31      93.341  90.203 182.284  1.00  0.00    -0.353 OA
ATOM    657  C3'  DA A  31      95.087  90.066 180.724  1.00  0.00     0.198 C 
ATOM    658  C1'  DA A  31      93.624  91.524 181.854  1.00  0.00     0.262 C 
ATOM    659  N9   DA A  31      94.352  92.213 182.920  1.00  0.00    -0.294 N 
ATOM    660  C2'  DA A  31      94.413  91.421 180.548  1.00  0.00     0.199 C 
ATOM    661  C4   DA A  31      94.383  93.569 183.136  1.00  0.00     0.167 A 
ATOM    662  C8   DA A  31      95.139  91.659 183.898  1.00  0.00     0.214 A 
ATOM    663  C5   DA A  31      95.195  93.755 184.240  1.00  0.00     0.149 A 
ATOM    664  N3   DA A  31      93.759  94.522 182.424  1.00  0.00    -0.222 NA
ATOM    665  N7   DA A  31      95.665  92.539 184.715  1.00  0.00    -0.236 NA
ATOM    666  C6   DA A  31      95.393  95.080 184.669  1.00  0.00     0.155 A 
ATOM    667  N1   DA A  31      94.781  96.064 183.974  1.00  0.00    -0.222 NA
ATOM    668  C2   DA A  31      94.023  95.729 182.922  1.00  0.00     0.237 A 
ATOM    669  O2'  DT A  29      93.561  86.759 190.827  1.00  0.00    -0.388 OA
ATOM    670  C1'  DT A  29      93.434  88.752 192.147  1.00  0.00     0.264 C 
ATOM    671 2'HO  DT A  29      94.263  86.112 190.911  1.00  0.00     0.210 HD
ATOM    672  N1   DT A  29      93.412  90.214 191.996  1.00  0.00    -0.280 N 
ATOM    673  C2   DT A  29      92.378  90.773 191.268  1.00  0.00     0.331 A 
ATOM    674  C6   DT A  29      94.389  91.004 192.559  1.00  0.00     0.104 A 
ATOM    675  O2   DT A  29      91.494  90.111 190.755  1.00  0.00    -0.246 OA
ATOM    676  N3   DT A  29      92.415  92.140 191.161  1.00  0.00    -0.275 N 
ATOM    677  C4   DT A  29      93.356  92.987 191.698  1.00  0.00     0.250 A 
ATOM    678  H3   DT A  29      91.671  92.568 190.631  1.00  0.00     0.173 HD
ATOM    679  O4   DT A  29      93.254  94.198 191.512  1.00  0.00    -0.268 OA
ATOM    680  C5   DT A  29      94.392  92.335 192.437  1.00  0.00     0.092 A 
ATOM    681 2'HO  DC A  25      90.891 102.847 206.430  1.00  0.00     0.210 HD
BRANCH 540 682
ATOM    682  N1   DC A  25      87.257 100.635 205.429  1.00  0.00    -0.278 N 
ATOM    683  C2   DC A  25      87.238  99.514 206.263  1.00  0.00     0.352 A 
ATOM    684  N3   DC A  25      86.565  98.410 205.872  1.00  0.00    -0.177 NA
ATOM    685  O2   DC A  25      87.840  99.559 207.347  1.00  0.00    -0.244 OA
ATOM    686  C4   DC A  25      85.924  98.400 204.702  1.00  0.00     0.128 A 
ATOM    687  N4   DC A  25      85.271  97.288 204.361  1.00  0.00    -0.384 N 
ATOM    688  C5   DC A  25      85.925  99.528 203.831  1.00  0.00     0.067 A 
ATOM    689  H42  DC A  25      85.266  96.497 204.989  1.00  0.00     0.157 HD
ATOM    690  H41  DC A  25      84.773  97.239 203.485  1.00  0.00     0.157 HD
ATOM    691  C6   DC A  25      86.598 100.615 204.232  1.00  0.00     0.102 A 
ENDBRANCH 540 682
BRANCH 666 692
ATOM    692  N6   DA A  31      96.144  95.413 185.717  1.00  0.00    -0.382 N 
ATOM    693  H62  DA A  31      95.987  94.965 186.611  1.00  0.00     0.157 HD
ATOM    694  H61  DA A  31      96.868  96.108 185.619  1.00  0.00     0.157 HD
ENDBRANCH 666 692
BRANCH 660 695
ATOM    695  O2'  DA A  31      93.500  91.402 179.467  1.00  0.00    -0.388 OA
ATOM    696 2'HO  DA A  31      92.758  91.950 179.725  1.00  0.00     0.210 HD
ENDBRANCH 660 695
BRANCH 657 697
ATOM    697  O3'  DA A  31      95.491  89.493 179.483  1.00  0.00    -0.279 OA
BRANCH 697 698
ATOM    698  P    DA A  32      96.931  89.857 178.868  1.00  0.00     0.408 P 
ATOM    699  OP2  DA A  32      97.960  89.622 179.910  1.00  0.00    -0.624 OA
ATOM    700  OP1  DA A  32      97.038  89.161 177.560  1.00  0.00    -0.624 OA
BRANCH 698 701
ATOM    701  O5'  DA A  32      96.847  91.425 178.589  1.00  0.00    -0.287 OA
ATOM    702  C5'  DA A  32      95.928  91.949 177.632  1.00  0.00     0.216 C 
ATOM    703  C4'  DA A  32      95.863  93.457 177.735  1.00  0.00     0.180 C 
ATOM    704  C3'  DA A  32      97.140  94.203 177.387  1.00  0.00     0.198 C 
ATOM    705  O4'  DA A  32      95.631  93.849 179.108  1.00  0.00    -0.353 OA
ATOM    706  O3'  DA A  32      97.302  94.329 175.976  1.00  0.00    -0.279 OA
ATOM    707  C2'  DA A  32      96.938  95.556 178.071  1.00  0.00     0.199 C 
ATOM    708  P    DT A  33      98.780  94.379 175.342  1.00  0.00     0.408 P 
ATOM    709  OP1  DT A  33      98.648  94.895 173.956  1.00  0.00    -0.624 OA
ATOM    710  OP2  DT A  33      99.431  93.065 175.577  1.00  0.00    -0.624 OA
ATOM    711  O5'  DT A  33      99.537  95.475 176.214  1.00  0.00    -0.287 OA
ATOM    712  C5'  DT A  33      99.270  96.866 176.040  1.00  0.00     0.216 C 
ATOM    713  C4'  DT A  33     100.199  97.687 176.903  1.00  0.00     0.180 C 
ATOM    714  O4'  DT A  33      99.813  97.540 178.293  1.00  0.00    -0.353 OA
ATOM    715  C3'  DT A  33     101.659  97.260 176.879  1.00  0.00     0.198 C 
ATOM    716  C1'  DT A  33     100.964  97.618 179.116  1.00  0.00     0.264 C 
ATOM    717  N1   DT A  33     101.015  96.410 179.951  1.00  0.00    -0.280 N 
ATOM    718  C2'  DT A  33     102.184  97.794 178.208  1.00  0.00     0.199 C 
ATOM    719  C2   DT A  33     101.281  96.568 181.299  1.00  0.00     0.331 A 
ATOM    720  C6   DT A  33     100.807  95.160 179.413  1.00  0.00     0.104 A 
ATOM    721  N3   DT A  33     101.324  95.405 182.023  1.00  0.00    -0.275 N 
ATOM    722  O2   DT A  33     101.464  97.657 181.816  1.00  0.00    -0.246 OA
ATOM    723  H3   DT A  33     101.528  95.496 183.007  1.00  0.00     0.173 HD
ATOM    724  C4   DT A  33     101.128  94.128 181.551  1.00  0.00     0.250 A 
ATOM    725  C5   DT A  33     100.853  94.047 180.150  1.00  0.00     0.092 A 
ATOM    726  O4   DT A  33     101.195  93.180 182.331  1.00  0.00    -0.268 OA
ATOM    727  O2'  DT A  33     102.481  99.175 178.120  1.00  0.00    -0.388 OA
ATOM    728 2'HO  DT A  33     102.724  99.354 177.212  1.00  0.00     0.210 HD
ATOM    729  O3'  DT A  33     102.342  97.813 175.758  1.00  0.00    -0.279 OA
ATOM    730  P    DG A  34     103.450  96.940 174.988  1.00  0.00     0.408 P 
ATOM    731  OP2  DG A  34     102.834  95.647 174.593  1.00  0.00    -0.624 OA
ATOM    732  OP1  DG A  34     104.061  97.809 173.950  1.00  0.00    -0.624 OA
ATOM    733  O5'  DG A  34     104.547  96.651 176.106  1.00  0.00    -0.287 OA
ATOM    734  C5'  DG A  34     105.493  95.595 175.954  1.00  0.00     0.216 C 
ATOM    735  C4'  DG A  34     106.678  95.828 176.861  1.00  0.00     0.180 C 
ATOM    736  O4'  DG A  34     107.375  97.024 176.418  1.00  0.00    -0.353 OA
ATOM    737  C3'  DG A  34     106.339  96.092 178.323  1.00  0.00     0.198 C 
ATOM    738  C1'  DG A  34     107.814  97.767 177.540  1.00  0.00     0.262 C 
ATOM    739  N9   DG A  34     107.154  99.068 177.516  1.00  0.00    -0.293 N 
ATOM    740  C2'  DG A  34     107.513  96.944 178.793  1.00  0.00     0.199 C 
ATOM    741  C8   DG A  34     105.943  99.377 176.947  1.00  0.00     0.214 A 
ATOM    742  C4   DG A  34     107.635 100.235 178.060  1.00  0.00     0.187 A 
ATOM    743  N7   DG A  34     105.617 100.633 177.079  1.00  0.00    -0.234 NA
ATOM    744  C5   DG A  34     106.679 101.189 177.781  1.00  0.00     0.173 A 
ATOM    745  C6   DG A  34     106.897 102.521 178.220  1.00  0.00     0.292 A 
ATOM    746  N1   DG A  34     108.106 102.644 178.897  1.00  0.00    -0.153 N 
ATOM    747  O6   DG A  34     106.173 103.513 178.074  1.00  0.00    -0.265 OA
ATOM    748  H1   DG A  34     108.345 103.557 179.246  1.00  0.00     0.187 HD
ATOM    749  C2   DG A  34     108.990 101.622 179.122  1.00  0.00     0.703 A 
ATOM    750  N2   DG A  34     110.098 101.940 179.796  1.00  0.00    -0.233 N 
ATOM    751  N3   DG A  34     108.802 100.380 178.720  1.00  0.00    -0.044 NA
ATOM    752  H22  DG A  34     110.255 102.887 180.109  1.00  0.00     0.174 HD
ATOM    753  H21  DG A  34     110.779 101.220 179.987  1.00  0.00     0.174 HD
ATOM    754  O2'  DG A  34     108.641  96.140 179.087  1.00  0.00    -0.388 OA
ATOM    755 2'HO  DG A  34     108.312  95.253 179.236  1.00  0.00     0.210 HD
ATOM    756  O3'  DG A  34     106.228  94.873 179.055  1.00  0.00    -0.279 OA
ATOM    757  P    DG A  35     105.281  94.800 180.353  1.00  0.00     0.408 P 
ATOM    758  OP2  DG A  35     103.930  95.293 179.981  1.00  0.00    -0.624 OA
ATOM    759  O5'  DG A  35     105.932  95.839 181.372  1.00  0.00    -0.287 OA
ATOM    760  OP1  DG A  35     105.430  93.438 180.926  1.00  0.00    -0.624 OA
ATOM    761  C5'  DG A  35     107.240  95.626 181.907  1.00  0.00     0.216 C 
ATOM    762  C4'  DG A  35     107.588  96.723 182.887  1.00  0.00     0.180 C 
ATOM    763  C3'  DG A  35     106.488  97.080 183.881  1.00  0.00     0.198 C 
ATOM    764  O4'  DG A  35     107.847  97.942 182.136  1.00  0.00    -0.353 OA
ATOM    765  C2'  DG A  35     106.698  98.573 184.112  1.00  0.00     0.199 C 
ATOM    766  O3'  DG A  35     106.618  96.330 185.088  1.00  0.00    -0.279 OA
ATOM    767  C1'  DG A  35     107.163  99.028 182.730  1.00  0.00     0.262 C 
ATOM    768  O2'  DG A  35     107.738  98.803 185.043  1.00  0.00    -0.388 OA
ATOM    769  N9   DG A  35     106.077  99.428 181.840  1.00  0.00    -0.293 N 
ATOM    770  C8   DG A  35     105.153  98.609 181.240  1.00  0.00     0.214 A 
ATOM    771  C4   DG A  35     105.780 100.707 181.436  1.00  0.00     0.187 A 
ATOM    772  N7   DG A  35     104.300  99.254 180.494  1.00  0.00    -0.234 NA
ATOM    773  C5   DG A  35     104.685 100.584 180.608  1.00  0.00     0.173 A 
ATOM    774  C6   DG A  35     104.136 101.755 180.023  1.00  0.00     0.292 A 
ATOM    775  N1   DG A  35     104.833 102.893 180.408  1.00  0.00    -0.153 N 
ATOM    776  O6   DG A  35     103.169 101.858 179.261  1.00  0.00    -0.265 OA
ATOM    777  C2   DG A  35     105.919 102.906 181.244  1.00  0.00     0.703 A 
ATOM    778  H1   DG A  35     104.510 103.773 180.038  1.00  0.00     0.187 HD
ATOM    779  N2   DG A  35     106.454 104.104 181.495  1.00  0.00    -0.233 N 
ATOM    780  N3   DG A  35     106.444 101.827 181.794  1.00  0.00    -0.044 NA
ATOM    781  H22  DG A  35     106.056 104.936 181.087  1.00  0.00     0.174 HD
ATOM    782  H21  DG A  35     107.256 104.168 182.106  1.00  0.00     0.174 HD
ATOM    783 2'HO  DG A  35     108.056  97.944 185.322  1.00  0.00     0.210 HD
ATOM    784  P    DC A  36     105.330  96.083 186.022  1.00  0.00     0.408 P 
ATOM    785  O5'  DC A  36     105.550  97.069 187.254  1.00  0.00    -0.287 OA
ATOM    786  OP2  DC A  36     104.113  96.516 185.290  1.00  0.00    -0.624 OA
ATOM    787  OP1  DC A  36     105.422  94.691 186.530  1.00  0.00    -0.624 OA
ATOM    788  C5'  DC A  36     104.610  97.120 188.329  1.00  0.00     0.216 C 
ATOM    789  C4'  DC A  36     104.907  98.296 189.231  1.00  0.00     0.180 C 
ATOM    790  C3'  DC A  36     105.322  99.581 188.517  1.00  0.00     0.198 C 
ATOM    791  O4'  DC A  36     106.025  97.942 190.095  1.00  0.00    -0.353 OA
ATOM    792  O3'  DC A  36     104.793 100.731 189.174  1.00  0.00    -0.279 OA
ATOM    793  C2'  DC A  36     106.845  99.540 188.578  1.00  0.00     0.199 C 
ATOM    794  P    DA A  37     103.471 101.444 188.598  1.00  0.00     0.408 P 
ATOM    795  OP2  DA A  37     102.467 100.399 188.275  1.00  0.00    -0.624 OA
ATOM    796  OP1  DA A  37     103.119 102.531 189.547  1.00  0.00    -0.624 OA
ATOM    797  O5'  DA A  37     103.955 102.112 187.235  1.00  0.00    -0.287 OA
ATOM    798  C5'  DA A  37     105.119 102.938 187.191  1.00  0.00     0.216 C 
ATOM    799  C4'  DA A  37     104.902 104.096 186.244  1.00  0.00     0.180 C 
ATOM    800  C3'  DA A  37     103.470 104.612 186.163  1.00  0.00     0.198 C 
ATOM    801  O4'  DA A  37     105.226 103.656 184.896  1.00  0.00    -0.353 OA
ATOM    802  O3'  DA A  37     103.227 105.638 187.123  1.00  0.00    -0.279 OA
ATOM    803  C2'  DA A  37     103.377 105.129 184.733  1.00  0.00     0.199 C 
ATOM    804  P    DT A  38     101.748 105.834 187.724  1.00  0.00     0.408 P 
ATOM    805  O5'  DT A  38     100.789 105.636 186.468  1.00  0.00    -0.287 OA
ATOM    806  OP1  DT A  38     101.637 107.243 188.181  1.00  0.00    -0.624 OA
ATOM    807  OP2  DT A  38     101.483 104.731 188.681  1.00  0.00    -0.624 OA
ATOM    808  C5'  DT A  38     100.560 106.695 185.539  1.00  0.00     0.216 C 
ATOM    809  C4'  DT A  38      99.542 106.270 184.507  1.00  0.00     0.180 C 
ATOM    810  C3'  DT A  38      98.209 105.799 185.068  1.00  0.00     0.198 C 
ATOM    811  O4'  DT A  38     100.055 105.123 183.780  1.00  0.00    -0.353 OA
ATOM    812  C2'  DT A  38      97.692 104.874 183.972  1.00  0.00     0.199 C 
ATOM    813  O3'  DT A  38      97.337 106.898 185.316  1.00  0.00    -0.279 OA
ATOM    814  O2'  DT A  38      97.106 105.610 182.915  1.00  0.00    -0.388 OA
ATOM    815  C1'  DT A  38      98.990 104.242 183.464  1.00  0.00     0.264 C 
ATOM    816 2'HO  DT A  38      96.186 105.747 183.148  1.00  0.00     0.210 HD
ATOM    817  N1   DT A  38      99.284 102.930 184.059  1.00  0.00    -0.280 N 
ATOM    818  C6   DT A  38     100.052 102.815 185.196  1.00  0.00     0.104 A 
ATOM    819  C2   DT A  38      98.765 101.809 183.435  1.00  0.00     0.331 A 
ATOM    820  C5   DT A  38     100.337 101.633 185.750  1.00  0.00     0.092 A 
ATOM    821  C4   DT A  38      99.842 100.428 185.161  1.00  0.00     0.250 A 
ATOM    822  N3   DT A  38      99.082 100.616 184.030  1.00  0.00    -0.275 N 
ATOM    823  O4   DT A  38     100.033  99.286 185.576  1.00  0.00    -0.268 OA
ATOM    824  H3   DT A  38      98.726  99.782 183.585  1.00  0.00     0.173 HD
ATOM    825  O2   DT A  38      98.075 101.868 182.433  1.00  0.00    -0.246 OA
ATOM    826  P    DT A  39      96.018 106.687 186.210  1.00  0.00     0.408 P 
ATOM    827  OP1  DT A  39      95.470 108.035 186.510  1.00  0.00    -0.624 OA
ATOM    828  OP2  DT A  39      96.348 105.766 187.328  1.00  0.00    -0.624 OA
ATOM    829  O5'  DT A  39      95.002 105.950 185.228  1.00  0.00    -0.287 OA
ATOM    830  C5'  DT A  39      94.372 104.726 185.602  1.00  0.00     0.216 C 
ATOM    831  C4'  DT A  39      93.775 104.058 184.387  1.00  0.00     0.180 C 
ATOM    832  C3'  DT A  39      92.661 103.061 184.675  1.00  0.00     0.198 C 
ATOM    833  O4'  DT A  39      94.807 103.276 183.724  1.00  0.00    -0.353 OA
ATOM    834  O3'  DT A  39      91.394 103.706 184.769  1.00  0.00    -0.279 OA
ATOM    835  C2'  DT A  39      92.754 102.117 183.484  1.00  0.00     0.199 C 
ATOM    836  P    DG A  40      90.281 103.139 185.784  1.00  0.00     0.408 P 
ATOM    837  OP1  DG A  40      89.169 104.123 185.814  1.00  0.00    -0.624 OA
ATOM    838  O5'  DG A  40      89.750 101.816 185.072  1.00  0.00    -0.287 OA
ATOM    839  OP2  DG A  40      90.950 102.750 187.052  1.00  0.00    -0.624 OA
ATOM    840  C5'  DG A  40      89.193 101.862 183.760  1.00  0.00     0.216 C 
ATOM    841  C4'  DG A  40      88.715 100.490 183.351  1.00  0.00     0.180 C 
ATOM    842  O4'  DG A  40      89.869  99.663 183.042  1.00  0.00    -0.353 OA
ATOM    843  C3'  DG A  40      87.964  99.716 184.425  1.00  0.00     0.198 C 
ATOM    844  C1'  DG A  40      89.656  98.346 183.519  1.00  0.00     0.262 C 
ATOM    845  C2'  DG A  40      88.216  98.268 184.026  1.00  0.00     0.199 C 
ATOM    846  N9   DG A  40      90.653  98.057 184.543  1.00  0.00    -0.293 N 
ATOM    847  O2'  DG A  40      87.377  97.881 182.953  1.00  0.00    -0.388 OA
ATOM    848 2'HO  DG A  40      86.660  98.515 182.924  1.00  0.00     0.210 HD
ATOM    849  C8   DG A  40      91.404  98.964 185.252  1.00  0.00     0.214 A 
ATOM    850  C4   DG A  40      91.027  96.814 184.990  1.00  0.00     0.187 A 
ATOM    851  N7   DG A  40      92.221  98.404 186.103  1.00  0.00    -0.234 NA
ATOM    852  C5   DG A  40      91.992  97.042 185.949  1.00  0.00     0.173 A 
ATOM    853  C6   DG A  40      92.582  95.929 186.603  1.00  0.00     0.292 A 
ATOM    854  N1   DG A  40      92.057  94.728 186.139  1.00  0.00    -0.153 N 
ATOM    855  O6   DG A  40      93.452  95.921 187.480  1.00  0.00    -0.265 OA
ATOM    856  C2   DG A  40      91.090  94.611 185.174  1.00  0.00     0.703 A 
ATOM    857  H1   DG A  40      92.417  93.879 186.547  1.00  0.00     0.187 HD
ATOM    858  N3   DG A  40      90.532  95.636 184.557  1.00  0.00    -0.044 NA
ATOM    859  N2   DG A  40      90.712  93.368 184.863  1.00  0.00    -0.233 N 
ATOM    860  H21  DG A  40      90.003  93.230 184.158  1.00  0.00     0.174 HD
ATOM    861  H22  DG A  40      91.133  92.574 185.327  1.00  0.00     0.174 HD
ATOM    862  O3'  DG A  40      86.578 100.047 184.436  1.00  0.00    -0.279 OA
ATOM    863  P    DA A  41      85.703  99.777 185.758  1.00  0.00     0.408 P 
ATOM    864  OP2  DA A  41      86.440 100.315 186.930  1.00  0.00    -0.624 OA
ATOM    865  OP1  DA A  41      84.324 100.254 185.478  1.00  0.00    -0.624 OA
ATOM    866  O5'  DA A  41      85.665  98.189 185.879  1.00  0.00    -0.287 OA
ATOM    867  C5'  DA A  41      85.040  97.389 184.876  1.00  0.00     0.216 C 
ATOM    868  C4'  DA A  41      84.921  95.960 185.351  1.00  0.00     0.180 C 
ATOM    869  C3'  DA A  41      84.472  95.796 186.796  1.00  0.00     0.198 C 
ATOM    870  O4'  DA A  41      86.231  95.335 185.294  1.00  0.00    -0.353 OA
ATOM    871  O3'  DA A  41      83.051  95.791 186.893  1.00  0.00    -0.279 OA
ATOM    872  C2'  DA A  41      85.094  94.462 187.195  1.00  0.00     0.199 C 
ATOM    873  P    DA A  42      82.346  95.910 188.333  1.00  0.00     0.408 P 
ATOM    874  O5'  DA A  42      82.537  94.463 188.974  1.00  0.00    -0.287 OA
ATOM    875  OP1  DA A  42      80.894  96.118 188.098  1.00  0.00    -0.624 OA
ATOM    876  OP2  DA A  42      83.105  96.892 189.149  1.00  0.00    -0.624 OA
ATOM    877  C5'  DA A  42      82.994  94.305 190.316  1.00  0.00     0.216 C 
ATOM    878  C4'  DA A  42      83.502  92.899 190.530  1.00  0.00     0.180 C 
ATOM    879  C3'  DA A  42      83.801  92.536 191.979  1.00  0.00     0.198 C 
ATOM    880  O4'  DA A  42      84.770  92.751 189.830  1.00  0.00    -0.353 OA
ATOM    881  O3'  DA A  42      82.654  91.995 192.631  1.00  0.00    -0.279 OA
ATOM    882  C2'  DA A  42      84.930  91.522 191.840  1.00  0.00     0.199 C 
ATOM    883  P    DG A  43      82.338  92.393 194.157  1.00  0.00     0.408 P 
ATOM    884  O5'  DG A  43      83.295  91.443 195.006  1.00  0.00    -0.287 OA
ATOM    885  OP1  DG A  43      80.933  91.997 194.432  1.00  0.00    -0.624 OA
ATOM    886  OP2  DG A  43      82.758  93.802 194.370  1.00  0.00    -0.624 OA
ATOM    887  C5'  DG A  43      83.276  90.029 194.818  1.00  0.00     0.216 C 
ATOM    888  C4'  DG A  43      84.454  89.391 195.518  1.00  0.00     0.180 C 
ATOM    889  C3'  DG A  43      84.631  89.762 196.984  1.00  0.00     0.198 C 
ATOM    890  O4'  DG A  43      85.681  89.841 194.884  1.00  0.00    -0.353 OA
ATOM    891  O3'  DG A  43      83.822  88.951 197.832  1.00  0.00    -0.279 OA
ATOM    892  C2'  DG A  43      86.120  89.529 197.200  1.00  0.00     0.199 C 
ATOM    893  P    DA A  44      83.268  89.549 199.220  1.00  0.00     0.408 P 
ATOM    894  OP1  DA A  44      82.315  88.552 199.774  1.00  0.00    -0.624 OA
ATOM    895  OP2  DA A  44      82.817  90.945 198.991  1.00  0.00    -0.624 OA
ATOM    896  O5'  DA A  44      84.551  89.586 200.165  1.00  0.00    -0.287 OA
ATOM    897  C5'  DA A  44      85.167  88.382 200.618  1.00  0.00     0.216 C 
ATOM    898  C4'  DA A  44      86.452  88.696 201.349  1.00  0.00     0.180 C 
ATOM    899  C3'  DA A  44      86.317  89.645 202.532  1.00  0.00     0.198 C 
ATOM    900  O4'  DA A  44      87.358  89.370 200.432  1.00  0.00    -0.353 OA
ATOM    901  O3'  DA A  44      86.002  88.941 203.731  1.00  0.00    -0.279 OA
ATOM    902  C2'  DA A  44      87.689  90.305 202.592  1.00  0.00     0.199 C 
ATOM    903  P    DG A  45      85.211  89.691 204.915  1.00  0.00     0.408 P 
ATOM    904  OP1  DG A  45      85.376  88.869 206.139  1.00  0.00    -0.624 OA
ATOM    905  OP2  DG A  45      83.847  90.017 204.428  1.00  0.00    -0.624 OA
ATOM    906  O5'  DG A  45      86.013  91.054 205.112  1.00  0.00    -0.287 OA
ATOM    907  C5'  DG A  45      87.087  91.145 206.047  1.00  0.00     0.216 C 
ATOM    908  C4'  DG A  45      87.859  92.424 205.828  1.00  0.00     0.180 C 
ATOM    909  O4'  DG A  45      87.419  93.409 206.803  1.00  0.00    -0.353 OA
ATOM    910  C3'  DG A  45      89.363  92.313 206.043  1.00  0.00     0.198 C 
ATOM    911  C1'  DG A  45      88.532  94.147 207.275  1.00  0.00     0.262 C 
ATOM    912  N9   DG A  45      88.676  93.895 208.706  1.00  0.00    -0.293 N 
ATOM    913  C2'  DG A  45      89.749  93.730 206.448  1.00  0.00     0.199 C 
ATOM    914  C8   DG A  45      88.361  94.753 209.732  1.00  0.00     0.214 A 
ATOM    915  C4   DG A  45      89.156  92.749 209.294  1.00  0.00     0.187 A 
ATOM    916  N7   DG A  45      88.600  94.253 210.912  1.00  0.00    -0.234 NA
ATOM    917  C5   DG A  45      89.104  92.985 210.652  1.00  0.00     0.173 A 
ATOM    918  C6   DG A  45      89.545  91.969 211.540  1.00  0.00     0.292 A 
ATOM    919  O6   DG A  45      89.586  91.986 212.775  1.00  0.00    -0.265 OA
ATOM    920  N1   DG A  45      89.977  90.842 210.852  1.00  0.00    -0.153 N 
ATOM    921  H1   DG A  45      90.309  90.064 211.403  1.00  0.00     0.187 HD
ATOM    922  C2   DG A  45      89.987  90.708 209.487  1.00  0.00     0.703 A 
ATOM    923  N2   DG A  45      90.442  89.547 209.011  1.00  0.00    -0.233 N 
ATOM    924  N3   DG A  45      89.582  91.644 208.650  1.00  0.00    -0.044 NA
ATOM    925  H22  DG A  45      90.758  88.822 209.637  1.00  0.00     0.174 HD
ATOM    926  H21  DG A  45      90.467  89.409 208.010  1.00  0.00     0.174 HD
ATOM    927  O2'  DG A  45      89.845  94.579 205.320  1.00  0.00    -0.388 OA
ATOM    928 2'HO  DG A  45      90.731  94.473 204.969  1.00  0.00     0.210 HD
ATOM    929  O3'  DG A  45      90.037  91.881 204.866  1.00  0.00    -0.279 OA
ATOM    930  P    DG A  46      91.443  91.111 204.992  1.00  0.00     0.408 P 
ATOM    931  OP2  DG A  46      91.185  89.754 205.539  1.00  0.00    -0.624 OA
ATOM    932  O5'  DG A  46      92.237  91.943 206.096  1.00  0.00    -0.287 OA
ATOM    933  OP1  DG A  46      92.152  91.258 203.694  1.00  0.00    -0.624 OA
ATOM    934  C5'  DG A  46      93.663  92.017 206.083  1.00  0.00     0.216 C 
ATOM    935  C4'  DG A  46      94.110  93.454 205.934  1.00  0.00     0.180 C 
ATOM    936  O4'  DG A  46      93.087  94.330 206.460  1.00  0.00    -0.353 OA
ATOM    937  C3'  DG A  46      95.355  93.833 206.724  1.00  0.00     0.198 C 
ATOM    938  C1'  DG A  46      93.681  95.532 206.904  1.00  0.00     0.262 C 
ATOM    939  N9   DG A  46      93.108  95.873 208.202  1.00  0.00    -0.293 N 
ATOM    940  C2'  DG A  46      95.202  95.341 206.936  1.00  0.00     0.199 C 
ATOM    941  C4   DG A  46      92.810  95.005 209.226  1.00  0.00     0.187 A 
ATOM    942  C8   DG A  46      92.760  97.125 208.645  1.00  0.00     0.214 A 
ATOM    943  C5   DG A  46      92.297  95.792 210.235  1.00  0.00     0.173 A 
ATOM    944  N3   DG A  46      92.995  93.670 209.212  1.00  0.00    -0.044 NA
ATOM    945  N7   DG A  46      92.271  97.128 209.856  1.00  0.00    -0.234 NA
ATOM    946  C6   DG A  46      91.892  95.171 211.447  1.00  0.00     0.292 A 
ATOM    947  N1   DG A  46      92.094  93.797 211.408  1.00  0.00    -0.153 N 
ATOM    948  O6   DG A  46      91.413  95.693 212.459  1.00  0.00    -0.265 OA
ATOM    949  H1   DG A  46      91.836  93.275 212.230  1.00  0.00     0.187 HD
ATOM    950  C2   DG A  46      92.615  93.107 210.344  1.00  0.00     0.703 A 
ATOM    951  N2   DG A  46      92.729  91.787 210.496  1.00  0.00    -0.233 N 
ATOM    952  H22  DG A  46      92.457  91.345 211.360  1.00  0.00     0.174 HD
ATOM    953  H21  DG A  46      93.109  91.243 209.734  1.00  0.00     0.174 HD
ATOM    954  O2'  DG A  46      95.764  96.066 205.858  1.00  0.00    -0.388 OA
ATOM    955 2'HO  DG A  46      95.250  95.862 205.075  1.00  0.00     0.210 HD
ATOM    956  O3'  DG A  46      96.545  93.522 206.003  1.00  0.00    -0.279 OA
ATOM    957  P    DT A  47      97.186  92.050 206.102  1.00  0.00     0.408 P 
ATOM    958  OP2  DT A  47      96.515  91.176 205.107  1.00  0.00    -0.624 OA
ATOM    959  O5'  DT A  47      96.779  91.542 207.558  1.00  0.00    -0.287 OA
ATOM    960  OP1  DT A  47      98.663  92.204 206.064  1.00  0.00    -0.624 OA
ATOM    961  C5'  DT A  47      97.464  92.007 208.720  1.00  0.00     0.216 C 
ATOM    962  C4'  DT A  47      96.934  91.309 209.951  1.00  0.00     0.180 C 
ATOM    963  O4'  DT A  47      95.484  91.220 209.856  1.00  0.00    -0.353 OA
ATOM    964  C3'  DT A  47      97.406  89.872 210.133  1.00  0.00     0.198 C 
ATOM    965  C1'  DT A  47      95.054  89.934 210.265  1.00  0.00     0.264 C 
ATOM    966  N1   DT A  47      94.512  89.232 209.091  1.00  0.00    -0.280 N 
ATOM    967  C2'  DT A  47      96.254  89.239 210.903  1.00  0.00     0.199 C 
ATOM    968  C2   DT A  47      93.332  88.528 209.245  1.00  0.00     0.331 A 
ATOM    969  C6   DT A  47      95.159  89.273 207.876  1.00  0.00     0.104 A 
ATOM    970  O2   DT A  47      92.722  88.475 210.299  1.00  0.00    -0.246 OA
ATOM    971  N3   DT A  47      92.889  87.887 208.117  1.00  0.00    -0.275 N 
ATOM    972  H3   DT A  47      92.030  87.363 208.195  1.00  0.00     0.173 HD
ATOM    973  C4   DT A  47      93.487  87.880 206.878  1.00  0.00     0.250 A 
ATOM    974  O4   DT A  47      92.980  87.228 205.966  1.00  0.00    -0.268 OA
ATOM    975  C5   DT A  47      94.695  88.637 206.797  1.00  0.00     0.092 A 
ATOM    976  O2'  DT A  47      96.299  89.587 212.274  1.00  0.00    -0.388 OA
ATOM    977 2'HO  DT A  47      97.194  89.869 212.461  1.00  0.00     0.210 HD
ATOM    978  O3'  DT A  47      98.639  89.817 210.846  1.00  0.00    -0.279 OA
ATOM    979  P    DC A  48      99.552  88.494 210.768  1.00  0.00     0.408 P 
ATOM    980  O5'  DC A  48      98.923  87.528 211.867  1.00  0.00    -0.287 OA
ATOM    981  OP1  DC A  48     100.917  88.872 211.214  1.00  0.00    -0.624 OA
ATOM    982  OP2  DC A  48      99.363  87.864 209.437  1.00  0.00    -0.624 OA
ATOM    983  C5'  DC A  48      98.872  87.913 213.240  1.00  0.00     0.216 C 
ATOM    984  C4'  DC A  48      98.061  86.916 214.033  1.00  0.00     0.180 C 
ATOM    985  O4'  DC A  48      96.690  86.929 213.553  1.00  0.00    -0.353 OA
ATOM    986  C3'  DC A  48      98.494  85.463 213.895  1.00  0.00     0.198 C 
ATOM    987  C1'  DC A  48      96.165  85.611 213.567  1.00  0.00     0.264 C 
ATOM    988  C2'  DC A  48      97.211  84.713 214.227  1.00  0.00     0.199 C 
ATOM    989  N1   DC A  48      95.839  85.225 212.185  1.00  0.00    -0.278 N 
ATOM    990  O2'  DC A  48      96.977  84.695 215.623  1.00  0.00    -0.388 OA
ATOM    991 2'HO  DC A  48      97.795  84.967 216.041  1.00  0.00     0.210 HD
ATOM    992  C2   DC A  48      94.812  84.302 211.965  1.00  0.00     0.352 A 
ATOM    993  C6   DC A  48      96.523  85.759 211.128  1.00  0.00     0.102 A 
ATOM    994  O2   DC A  48      94.212  83.826 212.938  1.00  0.00    -0.244 OA
ATOM    995  N3   DC A  48      94.500  83.949 210.698  1.00  0.00    -0.177 NA
ATOM    996  C4   DC A  48      95.170  84.480 209.674  1.00  0.00     0.128 A 
ATOM    997  C5   DC A  48      96.223  85.421 209.868  1.00  0.00     0.067 A 
ATOM    998  N4   DC A  48      94.826  84.105 208.442  1.00  0.00    -0.384 N 
ATOM    999  H41  DC A  48      95.308  84.484 207.641  1.00  0.00     0.157 HD
ATOM   1000  H42  DC A  48      94.078  83.438 208.312  1.00  0.00     0.157 HD
ATOM   1001  O3'  DC A  48      99.560  85.145 214.784  1.00  0.00    -0.279 OA
ATOM   1002  P    DA A  49     100.522  83.897 214.462  1.00  0.00     0.408 P 
ATOM   1003  O5'  DA A  49      99.549  82.637 214.523  1.00  0.00    -0.287 OA
ATOM   1004  OP1  DA A  49     101.493  83.789 215.580  1.00  0.00    -0.624 OA
ATOM   1005  OP2  DA A  49     101.019  84.036 213.070  1.00  0.00    -0.624 OA
ATOM   1006  C5'  DA A  49      98.827  82.324 215.713  1.00  0.00     0.216 C 
ATOM   1007  C4'  DA A  49      98.000  81.076 215.509  1.00  0.00     0.180 C 
ATOM   1008  O4'  DA A  49      96.810  81.404 214.747  1.00  0.00    -0.353 OA
ATOM   1009  C3'  DA A  49      98.655  79.978 214.687  1.00  0.00     0.198 C 
ATOM   1010  C1'  DA A  49      96.420  80.281 213.976  1.00  0.00     0.262 C 
ATOM   1011  C2'  DA A  49      97.453  79.174 214.202  1.00  0.00     0.199 C 
ATOM   1012  N9   DA A  49      96.308  80.697 212.578  1.00  0.00    -0.294 N 
ATOM   1013  O2'  DA A  49      96.971  78.309 215.214  1.00  0.00    -0.388 OA
ATOM   1014 2'HO  DA A  49      97.494  77.507 215.168  1.00  0.00     0.210 HD
ATOM   1015  C4   DA A  49      95.472  80.149 211.635  1.00  0.00     0.167 A 
ATOM   1016  C8   DA A  49      96.999  81.693 211.933  1.00  0.00     0.214 A 
ATOM   1017  N3   DA A  49      94.602  79.139 211.805  1.00  0.00    -0.222 NA
ATOM   1018  C5   DA A  49      95.707  80.854 210.468  1.00  0.00     0.149 A 
ATOM   1019  C2   DA A  49      93.961  78.876 210.669  1.00  0.00     0.237 A 
ATOM   1020  N1   DA A  49      94.081  79.464 209.471  1.00  0.00    -0.222 NA
ATOM   1021  C6   DA A  49      94.963  80.477 209.335  1.00  0.00     0.155 A 
ATOM   1022  N6   DA A  49      95.081  81.062 208.143  1.00  0.00    -0.382 N 
ATOM   1023  H62  DA A  49      94.517  80.750 207.365  1.00  0.00     0.157 HD
ATOM   1024  H61  DA A  49      95.736  81.821 208.019  1.00  0.00     0.157 HD
ATOM   1025  N7   DA A  49      96.675  81.827 210.669  1.00  0.00    -0.236 NA
ATOM   1026  O3'  DA A  49      99.557  79.202 215.472  1.00  0.00    -0.279 OA
ATOM   1027  P    DG A  50     100.908  78.628 214.810  1.00  0.00     0.408 P 
ATOM   1028  O5'  DG A  50     100.510  77.161 214.334  1.00  0.00    -0.287 OA
ATOM   1029  OP1  DG A  50     101.909  78.500 215.899  1.00  0.00    -0.624 OA
ATOM   1030  OP2  DG A  50     101.236  79.430 213.604  1.00  0.00    -0.624 OA
ATOM   1031  C5'  DG A  50     100.244  76.127 215.280  1.00  0.00     0.216 C 
ATOM   1032  C4'  DG A  50      99.297  75.109 214.689  1.00  0.00     0.180 C 
ATOM   1033  O4'  DG A  50      98.100  75.791 214.217  1.00  0.00    -0.353 OA
ATOM   1034  C3'  DG A  50      99.810  74.364 213.465  1.00  0.00     0.198 C 
ATOM   1035  C1'  DG A  50      97.676  75.218 212.991  1.00  0.00     0.262 C 
ATOM   1036  N9   DG A  50      97.834  76.214 211.937  1.00  0.00    -0.293 N 
ATOM   1037  C2'  DG A  50      98.516  73.963 212.771  1.00  0.00     0.199 C 
ATOM   1038  C4   DG A  50      97.014  76.397 210.850  1.00  0.00     0.187 A 
ATOM   1039  C8   DG A  50      98.832  77.152 211.829  1.00  0.00     0.214 A 
ATOM   1040  N3   DG A  50      95.906  75.682 210.563  1.00  0.00    -0.044 NA
ATOM   1041  C5   DG A  50      97.570  77.442 210.143  1.00  0.00     0.173 A 
ATOM   1042  C2   DG A  50      95.330  76.092 209.447  1.00  0.00     0.703 A 
ATOM   1043  N2   DG A  50      94.219  75.490 209.015  1.00  0.00    -0.233 N 
ATOM   1044  N1   DG A  50      95.800  77.123 208.674  1.00  0.00    -0.153 N 
ATOM   1045  H22  DG A  50      93.761  75.800 208.171  1.00  0.00     0.174 HD
ATOM   1046  H21  DG A  50      93.834  74.724 209.551  1.00  0.00     0.174 HD
ATOM   1047  H1   DG A  50      95.287  77.365 207.840  1.00  0.00     0.187 HD
ATOM   1048  C6   DG A  50      96.939  77.870 208.947  1.00  0.00     0.292 A 
ATOM   1049  O6   DG A  50      97.277  78.777 208.179  1.00  0.00    -0.265 OA
ATOM   1050  N7   DG A  50      98.716  77.908 210.773  1.00  0.00    -0.234 NA
ATOM   1051  O2'  DG A  50      97.895  72.875 213.432  1.00  0.00    -0.388 OA
ATOM   1052 2'HO  DG A  50      98.584  72.411 213.908  1.00  0.00     0.210 HD
ATOM   1053  O3'  DG A  50     100.613  73.242 213.822  1.00  0.00    -0.279 OA
ATOM   1054  P    DC A  51     101.762  72.731 212.817  1.00  0.00     0.408 P 
ATOM   1055  OP1  DC A  51     102.361  71.510 213.412  1.00  0.00    -0.624 OA
ATOM   1056  OP2  DC A  51     102.632  73.884 212.474  1.00  0.00    -0.624 OA
ATOM   1057  O5'  DC A  51     100.962  72.305 211.505  1.00  0.00    -0.287 OA
ATOM   1058  C5'  DC A  51     100.033  71.223 211.535  1.00  0.00     0.216 C 
ATOM   1059  C4'  DC A  51      99.152  71.253 210.307  1.00  0.00     0.180 C 
ATOM   1060  C3'  DC A  51      99.860  71.065 208.976  1.00  0.00     0.198 C 
ATOM   1061  O4'  DC A  51      98.545  72.562 210.167  1.00  0.00    -0.353 OA
ATOM   1062  C2'  DC A  51      98.846  71.638 207.991  1.00  0.00     0.199 C 
ATOM   1063  O3'  DC A  51     100.157  69.695 208.720  1.00  0.00    -0.279 OA
ATOM   1064  O2'  DC A  51      97.818  70.706 207.715  1.00  0.00    -0.388 OA
ATOM   1065  C1'  DC A  51      98.252  72.795 208.799  1.00  0.00     0.264 C 
ATOM   1066 2'HO  DC A  51      98.147  69.846 207.979  1.00  0.00     0.210 HD
ATOM   1067  N1   DC A  51      98.791  74.110 208.416  1.00  0.00    -0.278 N 
ATOM   1068  C6   DC A  51      99.626  74.802 209.249  1.00  0.00     0.102 A 
ATOM   1069  C2   DC A  51      98.437  74.642 207.174  1.00  0.00     0.352 A 
ATOM   1070  C5   DC A  51     100.119  75.997 208.897  1.00  0.00     0.067 A 
ATOM   1071  C4   DC A  51      99.743  76.511 207.622  1.00  0.00     0.128 A 
ATOM   1072  N4   DC A  51     100.199  77.693 207.213  1.00  0.00    -0.384 N 
ATOM   1073  N3   DC A  51      98.931  75.842 206.802  1.00  0.00    -0.177 NA
ATOM   1074  H42  DC A  51      99.920  78.054 206.312  1.00  0.00     0.157 HD
ATOM   1075  H41  DC A  51     100.815  78.230 207.806  1.00  0.00     0.157 HD
ATOM   1076  O2   DC A  51      97.673  73.998 206.440  1.00  0.00    -0.244 OA
ATOM   1077  P    DC A  52     101.336  69.312 207.694  1.00  0.00     0.408 P 
ATOM   1078  OP1  DC A  52     101.541  67.844 207.785  1.00  0.00    -0.624 OA
ATOM   1079  O5'  DC A  52     100.721  69.642 206.261  1.00  0.00    -0.287 OA
ATOM   1080  OP2  DC A  52     102.481  70.228 207.926  1.00  0.00    -0.624 OA
ATOM   1081  C5'  DC A  52      99.641  68.877 205.731  1.00  0.00     0.216 C 
ATOM   1082  C4'  DC A  52      99.510  69.117 204.245  1.00  0.00     0.180 C 
ATOM   1083  O4'  DC A  52      98.792  70.366 204.028  1.00  0.00    -0.353 OA
ATOM   1084  C3'  DC A  52     100.819  69.299 203.488  1.00  0.00     0.198 C 
ATOM   1085  C1'  DC A  52      99.392  71.085 202.962  1.00  0.00     0.264 C 
ATOM   1086  N1   DC A  52     100.021  72.297 203.515  1.00  0.00    -0.278 N 
ATOM   1087  C2'  DC A  52     100.381  70.133 202.293  1.00  0.00     0.199 C 
ATOM   1088  C2   DC A  52     100.203  73.404 202.682  1.00  0.00     0.352 A 
ATOM   1089  C6   DC A  52     100.421  72.343 204.821  1.00  0.00     0.102 A 
ATOM   1090  N3   DC A  52     100.772  74.523 203.185  1.00  0.00    -0.177 NA
ATOM   1091  O2   DC A  52      99.839  73.335 201.499  1.00  0.00    -0.244 OA
ATOM   1092  C4   DC A  52     101.152  74.560 204.463  1.00  0.00     0.128 A 
ATOM   1093  N4   DC A  52     101.698  75.687 204.917  1.00  0.00    -0.384 N 
ATOM   1094  C5   DC A  52     100.983  73.445 205.333  1.00  0.00     0.067 A 
ATOM   1095  H42  DC A  52     101.805  76.477 204.294  1.00  0.00     0.157 HD
ATOM   1096  H41  DC A  52     101.997  75.760 205.877  1.00  0.00     0.157 HD
ATOM   1097  O2'  DC A  52      99.685  69.345 201.345  1.00  0.00    -0.388 OA
ATOM   1098 2'HO  DC A  52      99.941  68.435 201.502  1.00  0.00     0.210 HD
ATOM   1099  O3'  DC A  52     101.394  68.053 203.105  1.00  0.00    -0.279 OA
ATOM   1100  P    DC A  53     102.974  67.959 202.818  1.00  0.00     0.408 P 
ATOM   1101  OP2  DC A  53     103.694  68.634 203.928  1.00  0.00    -0.624 OA
ATOM   1102  OP1  DC A  53     103.283  66.543 202.495  1.00  0.00    -0.624 OA
ATOM   1103  O5'  DC A  53     103.177  68.827 201.496  1.00  0.00    -0.287 OA
ATOM   1104  C5'  DC A  53     102.584  68.429 200.261  1.00  0.00     0.216 C 
ATOM   1105  C4'  DC A  53     102.784  69.498 199.212  1.00  0.00     0.180 C 
ATOM   1106  O4'  DC A  53     102.110  70.718 199.626  1.00  0.00    -0.353 OA
ATOM   1107  C3'  DC A  53     104.218  69.951 198.986  1.00  0.00     0.198 C 
ATOM   1108  C1'  DC A  53     102.824  71.841 199.132  1.00  0.00     0.264 C 
ATOM   1109  N1   DC A  53     103.214  72.688 200.271  1.00  0.00    -0.278 N 
ATOM   1110  C2'  DC A  53     104.017  71.312 198.335  1.00  0.00     0.199 C 
ATOM   1111  C6   DC A  53     103.273  72.179 201.539  1.00  0.00     0.102 A 
ATOM   1112  C2   DC A  53     103.530  74.029 200.036  1.00  0.00     0.352 A 
ATOM   1113  C5   DC A  53     103.627  72.947 202.577  1.00  0.00     0.067 A 
ATOM   1114  C4   DC A  53     103.945  74.309 202.305  1.00  0.00     0.128 A 
ATOM   1115  N3   DC A  53     103.893  74.815 201.073  1.00  0.00    -0.177 NA
ATOM   1116  N4   DC A  53     104.305  75.125 203.296  1.00  0.00    -0.384 N 
ATOM   1117  H41  DC A  53     104.357  74.784 204.245  1.00  0.00     0.157 HD
ATOM   1118  H42  DC A  53     104.527  76.090 203.092  1.00  0.00     0.157 HD
ATOM   1119  O2   DC A  53     103.469  74.467 198.879  1.00  0.00    -0.244 OA
ATOM   1120  O2'  DC A  53     103.634  71.181 196.979  1.00  0.00    -0.388 OA
ATOM   1121 2'HO  DC A  53     103.917  70.311 196.694  1.00  0.00     0.210 HD
ATOM   1122  O3'  DC A  53     104.941  69.049 198.154  1.00  0.00    -0.279 OA
ATOM   1123  P    DC A  54     106.548  69.011 198.228  1.00  0.00     0.408 P 
ATOM   1124  OP2  DC A  54     106.953  68.978 199.657  1.00  0.00    -0.624 OA
ATOM   1125  O5'  DC A  54     106.996  70.415 197.620  1.00  0.00    -0.287 OA
ATOM   1126  OP1  DC A  54     107.010  67.939 197.309  1.00  0.00    -0.624 OA
ATOM   1127  C5'  DC A  54     106.755  70.731 196.251  1.00  0.00     0.216 C 
ATOM   1128  C4'  DC A  54     107.225  72.136 195.946  1.00  0.00     0.180 C 
ATOM   1129  O4'  DC A  54     106.429  73.083 196.705  1.00  0.00    -0.353 OA
ATOM   1130  C3'  DC A  54     108.656  72.456 196.350  1.00  0.00     0.198 C 
ATOM   1131  C1'  DC A  54     107.228  74.199 197.060  1.00  0.00     0.264 C 
ATOM   1132  N1   DC A  54     107.218  74.333 198.526  1.00  0.00    -0.278 N 
ATOM   1133  C2'  DC A  54     108.624  73.975 196.478  1.00  0.00     0.199 C 
ATOM   1134  C6   DC A  54     106.961  73.257 199.329  1.00  0.00     0.102 A 
ATOM   1135  C2   DC A  54     107.478  75.585 199.089  1.00  0.00     0.352 A 
ATOM   1136  C5   DC A  54     106.947  73.376 200.662  1.00  0.00     0.067 A 
ATOM   1137  C4   DC A  54     107.216  74.666 201.207  1.00  0.00     0.128 A 
ATOM   1138  N4   DC A  54     107.217  74.850 202.526  1.00  0.00    -0.384 N 
ATOM   1139  N3   DC A  54     107.473  75.720 200.433  1.00  0.00    -0.177 NA
ATOM   1140  H41  DC A  54     107.027  74.080 203.151  1.00  0.00     0.157 HD
ATOM   1141  H42  DC A  54     107.405  75.772 202.897  1.00  0.00     0.157 HD
ATOM   1142  O2   DC A  54     107.708  76.546 198.340  1.00  0.00    -0.244 OA
ATOM   1143  O2'  DC A  54     108.688  74.596 195.208  1.00  0.00    -0.388 OA
ATOM   1144 2'HO  DC A  54     108.682  73.895 194.554  1.00  0.00     0.210 HD
ATOM   1145  O3'  DC A  54     109.593  72.012 195.373  1.00  0.00    -0.279 OA
ATOM   1146  P    DC A  55     111.130  71.779 195.786  1.00  0.00     0.408 P 
ATOM   1147  OP2  DC A  55     111.166  71.036 197.071  1.00  0.00    -0.624 OA
ATOM   1148  OP1  DC A  55     111.832  71.227 194.599  1.00  0.00    -0.624 OA
ATOM   1149  O5'  DC A  55     111.689  73.249 196.050  1.00  0.00    -0.287 OA
ATOM   1150  C5'  DC A  55     111.696  74.230 195.013  1.00  0.00     0.216 C 
ATOM   1151  C4'  DC A  55     112.301  75.518 195.519  1.00  0.00     0.180 C 
ATOM   1152  C3'  DC A  55     113.541  75.366 196.387  1.00  0.00     0.182 C 
ATOM   1153  O4'  DC A  55     111.342  76.184 196.382  1.00  0.00    -0.353 OA
ATOM   1154  C2'  DC A  55     113.528  76.650 197.209  1.00  0.00     0.198 C 
ATOM   1155  O3'  DC A  55     114.734  75.227 195.608  1.00  0.00    -0.390 OA
ATOM   1156  C1'  DC A  55     112.027  76.865 197.417  1.00  0.00     0.264 C 
ATOM   1157  O2'  DC A  55     114.043  77.740 196.465  1.00  0.00    -0.388 OA
ATOM   1158  N1   DC A  55     111.531  76.363 198.709  1.00  0.00    -0.278 N 
ATOM   1159  C2   DC A  55     111.408  77.258 199.776  1.00  0.00     0.352 A 
ATOM   1160  C6   DC A  55     111.196  75.048 198.869  1.00  0.00     0.102 A 
ATOM   1161  N3   DC A  55     110.950  76.808 200.965  1.00  0.00    -0.177 NA
ATOM   1162  O2   DC A  55     111.723  78.444 199.605  1.00  0.00    -0.244 OA
ATOM   1163  C4   DC A  55     110.624  75.523 201.111  1.00  0.00     0.128 A 
ATOM   1164  N4   DC A  55     110.177  75.128 202.302  1.00  0.00    -0.384 N 
ATOM   1165  C5   DC A  55     110.741  74.588 200.042  1.00  0.00     0.067 A 
ATOM   1166  H41  DC A  55     109.919  74.165 202.457  1.00  0.00     0.157 HD
ATOM   1167  H42  DC A  55     110.094  75.805 203.049  1.00  0.00     0.157 HD
ATOM   1168 2'HO  DC A  55     114.688  77.380 195.854  1.00  0.00     0.210 HD
ATOM   1169 3'HO  DC A  55     114.574  74.529 194.969  1.00  0.00     0.210 HD
ATOM   1170  O2'  DA A  44      88.638  89.457 203.213  1.00  0.00    -0.388 OA
ATOM   1171  C1'  DA A  44      88.031  90.417 201.107  1.00  0.00     0.262 C 
ATOM   1172 2'HO  DA A  44      88.143  88.791 203.692  1.00  0.00     0.210 HD
ATOM   1173  N9   DA A  44      87.629  91.687 200.504  1.00  0.00    -0.294 N 
ATOM   1174  C4   DA A  44      88.339  92.862 200.533  1.00  0.00     0.167 A 
ATOM   1175  C8   DA A  44      86.484  91.958 199.795  1.00  0.00     0.214 A 
ATOM   1176  N3   DA A  44      89.529  93.081 201.119  1.00  0.00    -0.222 NA
ATOM   1177  C5   DA A  44      87.578  93.779 199.831  1.00  0.00     0.149 A 
ATOM   1178  C2   DA A  44      89.913  94.344 200.942  1.00  0.00     0.237 A 
ATOM   1179  N1   DA A  44      89.290  95.335 200.291  1.00  0.00    -0.222 NA
ATOM   1180  C6   DA A  44      88.097  95.079 199.712  1.00  0.00     0.155 A 
ATOM   1181  N6   DA A  44      87.481  96.066 199.062  1.00  0.00    -0.382 N 
ATOM   1182  H61  DA A  44      86.588  95.897 198.619  1.00  0.00     0.157 HD
ATOM   1183  H62  DA A  44      87.907  96.979 199.003  1.00  0.00     0.157 HD
ATOM   1184  N7   DA A  44      86.406  93.195 199.370  1.00  0.00    -0.236 NA
ATOM   1185  O2'  DG A  43      86.405  88.149 197.351  1.00  0.00    -0.388 OA
ATOM   1186  C1'  DG A  43      86.693  90.003 195.865  1.00  0.00     0.262 C 
ATOM   1187 2'HO  DG A  43      85.678  87.773 197.848  1.00  0.00     0.210 HD
ATOM   1188  N9   DG A  43      87.109  91.403 195.870  1.00  0.00    -0.293 N 
ATOM   1189  C4   DG A  43      88.180  91.936 196.549  1.00  0.00     0.187 A 
ATOM   1190  C8   DG A  43      86.517  92.448 195.204  1.00  0.00     0.214 A 
ATOM   1191  N3   DG A  43      89.038  91.254 197.337  1.00  0.00    -0.044 NA
ATOM   1192  C5   DG A  43      88.172  93.280 196.245  1.00  0.00     0.173 A 
ATOM   1193  C2   DG A  43      89.965  92.043 197.852  1.00  0.00     0.703 A 
ATOM   1194  N1   DG A  43      90.047  93.390 197.614  1.00  0.00    -0.153 N 
ATOM   1195  N2   DG A  43      90.897  91.532 198.661  1.00  0.00    -0.233 N 
ATOM   1196  H1   DG A  43      90.796  93.898 198.060  1.00  0.00     0.187 HD
ATOM   1197  C6   DG A  43      89.176  94.113 196.806  1.00  0.00     0.292 A 
ATOM   1198  O6   DG A  43      89.343  95.328 196.657  1.00  0.00    -0.265 OA
ATOM   1199  H21  DG A  43      90.882  90.544 198.870  1.00  0.00     0.174 HD
ATOM   1200  H22  DG A  43      91.609  92.127 199.060  1.00  0.00     0.174 HD
ATOM   1201  N7   DG A  43      87.118  93.589 195.395  1.00  0.00    -0.234 NA
ATOM   1202  O2'  DA A  42      84.436  90.256 191.443  1.00  0.00    -0.388 OA
ATOM   1203  C1'  DA A  42      85.716  92.130 190.682  1.00  0.00     0.262 C 
ATOM   1204 2'HO  DA A  42      83.580  90.154 191.861  1.00  0.00     0.210 HD
ATOM   1205  N9   DA A  42      86.694  93.137 191.093  1.00  0.00    -0.294 N 
ATOM   1206  C4   DA A  42      87.777  92.940 191.916  1.00  0.00     0.167 A 
ATOM   1207  C8   DA A  42      86.724  94.467 190.748  1.00  0.00     0.214 A 
ATOM   1208  N3   DA A  42      88.159  91.793 192.502  1.00  0.00    -0.222 NA
ATOM   1209  C5   DA A  42      88.398  94.172 192.023  1.00  0.00     0.149 A 
ATOM   1210  C2   DA A  42      89.255  91.983 193.234  1.00  0.00     0.237 A 
ATOM   1211  N1   DA A  42      89.961  93.105 193.431  1.00  0.00    -0.222 NA
ATOM   1212  C6   DA A  42      89.548  94.240 192.827  1.00  0.00     0.155 A 
ATOM   1213  N6   DA A  42      90.248  95.358 193.021  1.00  0.00    -0.382 N 
ATOM   1214  H61  DA A  42      89.954  96.215 192.577  1.00  0.00     0.157 HD
ATOM   1215  H62  DA A  42      91.069  95.352 193.612  1.00  0.00     0.157 HD
ATOM   1216  N7   DA A  42      87.722  95.129 191.278  1.00  0.00    -0.236 NA
ATOM   1217  O2'  DA A  41      84.322  93.373 186.725  1.00  0.00    -0.388 OA
ATOM   1218  C1'  DA A  41      86.412  94.496 186.419  1.00  0.00     0.262 C 
ATOM   1219 2'HO  DA A  41      83.784  93.077 187.460  1.00  0.00     0.210 HD
ATOM   1220  N9   DA A  41      87.541  95.010 187.195  1.00  0.00    -0.294 N 
ATOM   1221  C8   DA A  41      87.936  96.317 187.341  1.00  0.00     0.214 A 
ATOM   1222  C4   DA A  41      88.430  94.264 187.932  1.00  0.00     0.167 A 
ATOM   1223  N7   DA A  41      88.996  96.467 188.098  1.00  0.00    -0.236 NA
ATOM   1224  C5   DA A  41      89.318  95.171 188.479  1.00  0.00     0.149 A 
ATOM   1225  C6   DA A  41      90.344  94.650 189.288  1.00  0.00     0.155 A 
ATOM   1226  N6   DA A  41      91.274  95.400 189.879  1.00  0.00    -0.382 N 
ATOM   1227  N1   DA A  41      90.383  93.313 189.469  1.00  0.00    -0.222 NA
ATOM   1228  H61  DA A  41      91.264  96.402 189.754  1.00  0.00     0.157 HD
ATOM   1229  H62  DA A  41      91.988  94.968 190.450  1.00  0.00     0.157 HD
ATOM   1230  C2   DA A  41      89.451  92.558 188.872  1.00  0.00     0.237 A 
ATOM   1231  N3   DA A  41      88.441  92.930 188.090  1.00  0.00    -0.222 NA
ATOM   1232  C1'  DT A  39      94.268 102.035 183.300  1.00  0.00     0.264 C 
ATOM   1233  O2'  DT A  39      92.183 102.696 182.326  1.00  0.00    -0.388 OA
ATOM   1234  N1   DT A  39      94.901 100.961 184.080  1.00  0.00    -0.280 N 
ATOM   1235  C2   DT A  39      94.626  99.654 183.719  1.00  0.00     0.331 A 
ATOM   1236  C6   DT A  39      95.735 101.243 185.138  1.00  0.00     0.104 A 
ATOM   1237  O2   DT A  39      93.900  99.363 182.786  1.00  0.00    -0.246 OA
ATOM   1238  N3   DT A  39      95.237  98.699 184.491  1.00  0.00    -0.275 N 
ATOM   1239  C4   DT A  39      96.076  98.909 185.559  1.00  0.00     0.250 A 
ATOM   1240  H3   DT A  39      95.041  97.738 184.252  1.00  0.00     0.173 HD
ATOM   1241  O4   DT A  39      96.549  97.942 186.156  1.00  0.00    -0.268 OA
ATOM   1242  C5   DT A  39      96.313 100.285 185.868  1.00  0.00     0.092 A 
ATOM   1243 2'HO  DT A  39      91.488 103.282 182.626  1.00  0.00     0.210 HD
ATOM   1244  O2'  DA A  37     103.989 106.399 184.604  1.00  0.00    -0.388 OA
ATOM   1245  C1'  DA A  37     104.228 104.098 183.995  1.00  0.00     0.262 C 
ATOM   1246 2'HO  DA A  37     104.061 106.761 185.488  1.00  0.00     0.210 HD
ATOM   1247  N9   DA A  37     103.471 102.934 183.536  1.00  0.00    -0.294 N 
ATOM   1248  C8   DA A  37     103.545 101.641 183.992  1.00  0.00     0.214 A 
ATOM   1249  C4   DA A  37     102.525 102.927 182.540  1.00  0.00     0.167 A 
ATOM   1250  N7   DA A  37     102.730 100.818 183.380  1.00  0.00    -0.236 NA
ATOM   1251  C5   DA A  37     102.077 101.622 182.456  1.00  0.00     0.149 A 
ATOM   1252  C6   DA A  37     101.088 101.350 181.495  1.00  0.00     0.155 A 
ATOM   1253  N1   DA A  37     100.651 102.376 180.735  1.00  0.00    -0.222 NA
ATOM   1254  N6   DA A  37     100.563 100.143 181.293  1.00  0.00    -0.382 N 
ATOM   1255  C2   DA A  37     101.180 103.590 180.931  1.00  0.00     0.237 A 
ATOM   1256  N3   DA A  37     102.116 103.970 181.799  1.00  0.00    -0.222 NA
ATOM   1257  H62  DA A  37      99.866 100.014 180.575  1.00  0.00     0.157 HD
ATOM   1258  H61  DA A  37     100.873  99.357 181.849  1.00  0.00     0.157 HD
ATOM   1259  O2'  DC A  36     107.394 100.844 188.606  1.00  0.00    -0.388 OA
ATOM   1260  C1'  DC A  36     107.063  98.886 189.939  1.00  0.00     0.264 C 
ATOM   1261 2'HO  DC A  36     106.699 101.433 188.901  1.00  0.00     0.210 HD
ATOM   1262  N1   DC A  36     108.350  98.187 190.077  1.00  0.00    -0.278 N 
ATOM   1263  C2   DC A  36     109.279  98.655 191.010  1.00  0.00     0.352 A 
ATOM   1264  C6   DC A  36     108.637  97.094 189.306  1.00  0.00     0.102 A 
ATOM   1265  O2   DC A  36     108.993  99.647 191.698  1.00  0.00    -0.244 OA
ATOM   1266  N3   DC A  36     110.464  98.019 191.139  1.00  0.00    -0.177 NA
ATOM   1267  C4   DC A  36     110.736  96.957 190.380  1.00  0.00     0.128 A 
ATOM   1268  C5   DC A  36     109.807  96.455 189.423  1.00  0.00     0.067 A 
ATOM   1269  N4   DC A  36     111.919  96.367 190.539  1.00  0.00    -0.384 N 
ATOM   1270  H42  DC A  36     112.564  96.733 191.224  1.00  0.00     0.157 HD
ATOM   1271  H41  DC A  36     112.169  95.561 189.983  1.00  0.00     0.157 HD
ATOM   1272  C1'  DA A  32      96.090  95.175 179.289  1.00  0.00     0.262 C 
ATOM   1273  O2'  DA A  32      96.181  96.427 177.252  1.00  0.00    -0.388 OA
ATOM   1274  N9   DA A  32      96.823  95.246 180.554  1.00  0.00    -0.294 N 
ATOM   1275  C4   DA A  32      97.217  96.399 181.190  1.00  0.00     0.167 A 
ATOM   1276  C8   DA A  32      97.261  94.212 181.344  1.00  0.00     0.214 A 
ATOM   1277  N3   DA A  32      97.008  97.663 180.787  1.00  0.00    -0.222 NA
ATOM   1278  C5   DA A  32      97.874  95.991 182.335  1.00  0.00     0.149 A 
ATOM   1279  C2   DA A  32      97.533  98.525 181.654  1.00  0.00     0.237 A 
ATOM   1280  N1   DA A  32      98.191  98.284 182.795  1.00  0.00    -0.222 NA
ATOM   1281  C6   DA A  32      98.383  97.001 183.172  1.00  0.00     0.155 A 
ATOM   1282  N6   DA A  32      99.037  96.764 184.309  1.00  0.00    -0.382 N 
ATOM   1283  H61  DA A  32      99.192  95.814 184.612  1.00  0.00     0.157 HD
ATOM   1284  H62  DA A  32      99.377  97.537 184.865  1.00  0.00     0.157 HD
ATOM   1285  N7   DA A  32      97.895  94.605 182.422  1.00  0.00    -0.236 NA
ATOM   1286 2'HO  DA A  32      96.168  96.037 176.377  1.00  0.00     0.210 HD
ENDBRANCH 698 701
ENDBRANCH 697 698
ENDBRANCH 657 697
ENDBRANCH 537 538
ENDBRANCH 536 537
ENDBRANCH 533 536
ENDBRANCH 532 533
ENDBRANCH 515 532
ENDBRANCH 510 511
ENDBRANCH 509 510
ENDBRANCH 506 509
ENDBRANCH 505 506
ENDBRANCH 490 505
ENDBRANCH 485 486
ENDBRANCH 484 485
ENDBRANCH 481 484
ENDBRANCH 480 481
ENDBRANCH 463 480
ENDBRANCH 458 459
ENDBRANCH 457 458
ENDBRANCH 454 457
ENDBRANCH 453 454
ENDBRANCH 438 453
ENDBRANCH 433 434
ENDBRANCH 432 433
ENDBRANCH 429 432
ENDBRANCH 428 429
ENDBRANCH 424 428
BRANCH 425 1287
ATOM   1287  O2'  DG A  20      76.375 106.314 197.461  1.00  0.00    -0.388 OA
ATOM   1288 2'HO  DG A  20      77.290 106.444 197.210  1.00  0.00     0.210 HD
ENDBRANCH 425 1287
BRANCH 426 1289
ATOM   1289  N9   DG A  20      76.626 103.552 195.077  1.00  0.00    -0.293 N 
ATOM   1290  C8   DG A  20      75.676 102.576 195.253  1.00  0.00     0.214 A 
ATOM   1291  N7   DG A  20      75.444 101.882 194.174  1.00  0.00    -0.234 NA
ATOM   1292  C5   DG A  20      76.298 102.430 193.225  1.00  0.00     0.173 A 
ATOM   1293  C6   DG A  20      76.497 102.093 191.859  1.00  0.00     0.292 A 
ATOM   1294  C4   DG A  20      77.037 103.460 193.769  1.00  0.00     0.187 A 
ATOM   1295  O6   DG A  20      75.940 101.215 191.191  1.00  0.00    -0.265 OA
ATOM   1296  N1   DG A  20      77.459 102.906 191.269  1.00  0.00    -0.153 N 
ATOM   1297  H1   DG A  20      77.667 102.743 190.296  1.00  0.00     0.187 HD
ATOM   1298  C2   DG A  20      78.143 103.908 191.906  1.00  0.00     0.703 A 
ATOM   1299  N3   DG A  20      77.967 104.234 193.174  1.00  0.00    -0.044 NA
BRANCH 1298 1300
ATOM   1300  N2   DG A  20      79.032 104.576 191.168  1.00  0.00    -0.233 N 
ATOM   1301  H22  DG A  20      79.009 104.512 190.160  1.00  0.00     0.174 HD
ATOM   1302  H21  DG A  20      79.719 105.157 191.627  1.00  0.00     0.174 HD
ENDBRANCH 1298 1300
ENDBRANCH 426 1289
ENDBRANCH 422 423
ENDBRANCH 421 422
ENDBRANCH 418 421
ENDBRANCH 417 418
ENDBRANCH 400 417
ENDBRANCH 395 396
ENDBRANCH 394 395
ENDBRANCH 391 394
ENDBRANCH 390 391
ENDBRANCH 373 390
ENDBRANCH 368 369
ENDBRANCH 367 368
ENDBRANCH 364 367
ENDBRANCH 363 364
ENDBRANCH 359 363
BRANCH 360 1303
ATOM   1303  O2'  DT A  17      73.309 101.194 191.924  1.00  0.00    -0.388 OA
ATOM   1304 2'HO  DT A  17      73.150 100.613 192.669  1.00  0.00     0.210 HD
ENDBRANCH 360 1303
BRANCH 361 1305
ATOM   1305  N1   DT A  17      73.438 104.390 192.101  1.00  0.00    -0.280 N 
ATOM   1306  C2   DT A  17      74.538 105.074 191.620  1.00  0.00     0.331 A 
ATOM   1307  N3   DT A  17      75.093 105.970 192.498  1.00  0.00    -0.275 N 
ATOM   1308  O2   DT A  17      74.988 104.904 190.501  1.00  0.00    -0.246 OA
ATOM   1309  H3   DT A  17      75.895 106.483 192.167  1.00  0.00     0.173 HD
ATOM   1310  C4   DT A  17      74.671 106.243 193.779  1.00  0.00     0.250 A 
ATOM   1311  O4   DT A  17      75.277 107.080 194.447  1.00  0.00    -0.268 OA
ATOM   1312  C5   DT A  17      73.531 105.494 194.203  1.00  0.00     0.092 A 
ATOM   1313  C6   DT A  17      72.962 104.614 193.373  1.00  0.00     0.104 A 
ENDBRANCH 361 1305
ENDBRANCH 357 358
ENDBRANCH 356 357
ENDBRANCH 353 356
ENDBRANCH 352 353
ENDBRANCH 348 352
BRANCH 349 1314
ATOM   1314  O2'  DT A  16      70.215 106.236 194.629  1.00  0.00    -0.388 OA
ATOM   1315 2'HO  DT A  16      71.054 105.780 194.561  1.00  0.00     0.210 HD
ENDBRANCH 349 1314
BRANCH 350 1316
ATOM   1316  N1   DT A  16      68.442 103.688 196.538  1.00  0.00    -0.280 N 
ATOM   1317  C6   DT A  16      67.151 103.386 196.911  1.00  0.00     0.104 A 
ATOM   1318  C5   DT A  16      66.770 102.144 197.219  1.00  0.00     0.092 A 
ATOM   1319  C4   DT A  16      67.712 101.072 197.171  1.00  0.00     0.250 A 
ATOM   1320  O4   DT A  16      67.478  99.890 197.416  1.00  0.00    -0.268 OA
ATOM   1321  N3   DT A  16      68.983 101.445 196.796  1.00  0.00    -0.275 N 
ATOM   1322  H3   DT A  16      69.674 100.710 196.764  1.00  0.00     0.173 HD
ATOM   1323  C2   DT A  16      69.413 102.705 196.472  1.00  0.00     0.331 A 
ATOM   1324  O2   DT A  16      70.565 102.932 196.152  1.00  0.00    -0.246 OA
ENDBRANCH 350 1316
ENDBRANCH 346 347
ENDBRANCH 345 346
ENDBRANCH 342 345
ENDBRANCH 341 342
ENDBRANCH 337 341
BRANCH 338 1325
ATOM   1325  O2'  DG A  15      65.590 104.621 200.087  1.00  0.00    -0.388 OA
ATOM   1326 2'HO  DG A  15      65.353 103.941 200.718  1.00  0.00     0.210 HD
ENDBRANCH 338 1325
BRANCH 339 1327
ATOM   1327  N9   DG A  15      64.536 106.696 202.868  1.00  0.00    -0.293 N 
ATOM   1328  C4   DG A  15      64.744 107.126 204.155  1.00  0.00     0.187 A 
ATOM   1329  C5   DG A  15      63.610 107.834 204.492  1.00  0.00     0.173 A 
ATOM   1330  N3   DG A  15      65.841 106.888 204.903  1.00  0.00    -0.044 NA
ATOM   1331  N7   DG A  15      62.707 107.850 203.438  1.00  0.00    -0.234 NA
ATOM   1332  C6   DG A  15      63.526 108.413 205.785  1.00  0.00     0.292 A 
ATOM   1333  C8   DG A  15      63.300 107.163 202.499  1.00  0.00     0.214 A 
ATOM   1334  O6   DG A  15      62.607 109.078 206.276  1.00  0.00    -0.265 OA
ATOM   1335  N1   DG A  15      64.666 108.153 206.538  1.00  0.00    -0.153 N 
ATOM   1336  H1   DG A  15      64.694 108.526 207.474  1.00  0.00     0.187 HD
ATOM   1337  C2   DG A  15      65.748 107.431 206.103  1.00  0.00     0.703 A 
BRANCH 1337 1338
ATOM   1338  N2   DG A  15      66.751 107.287 206.973  1.00  0.00    -0.233 N 
ATOM   1339  H22  DG A  15      67.493 106.627 206.801  1.00  0.00     0.174 HD
ATOM   1340  H21  DG A  15      66.758 107.852 207.811  1.00  0.00     0.174 HD
ENDBRANCH 1337 1338
ENDBRANCH 339 1327
ENDBRANCH 335 336
ENDBRANCH 334 335
ENDBRANCH 331 334
ENDBRANCH 330 331
ENDBRANCH 326 330
BRANCH 327 1341
ATOM   1341  O2'  DA A  14      70.989 108.711 205.235  1.00  0.00    -0.388 OA
ATOM   1342 2'HO  DA A  14      70.826 108.198 204.443  1.00  0.00     0.210 HD
ENDBRANCH 327 1341
BRANCH 328 1343
ATOM   1343  N9   DA A  14      68.855 110.839 207.315  1.00  0.00    -0.294 N 
ATOM   1344  C8   DA A  14      67.490 110.944 207.217  1.00  0.00     0.214 A 
ATOM   1345  N7   DA A  14      66.899 111.233 208.352  1.00  0.00    -0.236 NA
ATOM   1346  C5   DA A  14      67.947 111.323 209.258  1.00  0.00     0.149 A 
ATOM   1347  C4   DA A  14      69.157 111.084 208.633  1.00  0.00     0.167 A 
ATOM   1348  C6   DA A  14      67.987 111.604 210.636  1.00  0.00     0.155 A 
ATOM   1349  N3   DA A  14      70.374 111.088 209.204  1.00  0.00    -0.222 NA
ATOM   1350  C2   DA A  14      70.283 111.364 210.502  1.00  0.00     0.237 A 
ATOM   1351  N1   DA A  14      69.194 111.617 211.240  1.00  0.00    -0.222 NA
BRANCH 1348 1352
ATOM   1352  N6   DA A  14      66.904 111.857 211.372  1.00  0.00    -0.382 N 
ATOM   1353  H61  DA A  14      66.033 112.097 210.923  1.00  0.00     0.157 HD
ATOM   1354  H62  DA A  14      66.964 111.812 212.378  1.00  0.00     0.157 HD
ENDBRANCH 1348 1352
ENDBRANCH 328 1343
ENDBRANCH 324 325
ENDBRANCH 323 324
ENDBRANCH 320 323
ENDBRANCH 319 320
ENDBRANCH 318 319
BRANCH 317 1355
ATOM   1355  O2'  DC A  13      72.532 112.463 201.224  1.00  0.00    -0.388 OA
ATOM   1356 2'HO  DC A  13      71.786 112.111 200.737  1.00  0.00     0.210 HD
ENDBRANCH 317 1355
BRANCH 315 1357
ATOM   1357  N4   DC A  13      73.335 110.772 208.498  1.00  0.00    -0.384 N 
ATOM   1358  H41  DC A  13      74.124 110.231 208.822  1.00  0.00     0.157 HD
ATOM   1359  H42  DC A  13      72.533 110.909 209.097  1.00  0.00     0.157 HD
ENDBRANCH 315 1357
TORSDOF 427
ENDMDL
MODEL 2
REMARK VINA RESULT:      -8.0      1.319      2.493
REMARK WARNING: 32 MAX_TORS EXCEEDED!!!
REMARK  99 active torsions:
REMARK  status: ('A' for Active; 'I' for Inactive)
REMARK       I    between atoms: O5'_2  and  C5'_3 
REMARK       I    between atoms: C5'_3  and  C4'_4 
REMARK       I    between atoms: C1'_6  and  N9_7 
REMARK       I    between atoms: C2_10  and  N2_11 
REMARK       I    between atoms: C2'_21  and  O2'_22 
REMARK       I    between atoms: C3'_24  and  O3'_25 
REMARK       I    between atoms: O3'_25  and  P_26 
REMARK       I    between atoms: P_26  and  O5'_29 
REMARK       I    between atoms: O5'_29  and  C5'_30 
REMARK       I    between atoms: C5'_30  and  C4'_31 
REMARK       I    between atoms: C1'_33  and  N9_34 
REMARK       I    between atoms: C2_37  and  N2_38 
REMARK       I    between atoms: C2'_48  and  O2'_49 
REMARK       I    between atoms: C3'_51  and  O3'_52 
REMARK       I    between atoms: O3'_52  and  P_53 
REMARK       I    between atoms: P_53  and  O5'_56 
REMARK       I    between atoms: O5'_56  and  C5'_57 
REMARK       I    between atoms: C5'_57  and  C4'_58 
REMARK       I    between atoms: C1'_60  and  N9_61 
REMARK       I    between atoms: C2_64  and  N2_65 
REMARK       I    between atoms: C2'_75  and  O2'_76 
REMARK       I    between atoms: C3'_78  and  O3'_79 
REMARK       I    between atoms: O3'_79  and  P_80 
REMARK       I    between atoms: P_80  and  O5'_83 
REMARK       I    between atoms: O5'_83  and  C5'_84 
REMARK       I    between atoms: C5'_84  and  C4'_85 
REMARK       I    between atoms: C1'_87  and  N9_88 
REMARK       I    between atoms: C2_91  and  N2_92 
REMARK       I    between atoms: C2'_102  and  O2'_103 
REMARK       I    between atoms: C3'_105  and  O3'_106 
REMARK       I    between atoms: O3'_106  and  P_107 
REMARK       I    between atoms: P_107  and  O5'_110 
REMARK       I    between atoms: O5'_110  and  C5'_111 
REMARK       I    between atoms: C5'_111  and  C4'_112 
REMARK       I    between atoms: C1'_114  and  N9_115 
REMARK       I    between atoms: C2_118  and  N2_119 
REMARK       I    between atoms: C2'_129  and  O2'_130 
REMARK       I    between atoms: C3'_132  and  O3'_133 
REMARK       I    between atoms: O3'_133  and  P_134 
REMARK       I    between atoms: P_134  and  O5'_137 
REMARK       I    between atoms: O5'_137  and  C5'_138 
REMARK       I    between atoms: C5'_138  and  C4'_139 
REMARK       I    between atoms: C1'_141  and  N1_142 
REMARK       I    between atoms: C2'_151  and  O2'_152 
REMARK       I    between atoms: C3'_154  and  O3'_155 
REMARK       I    between atoms: O3'_155  and  P_156 
REMARK       I    between atoms: P_156  and  O5'_159 
REMARK       I    between atoms: O5'_159  and  C5'_160 
REMARK       I    between atoms: C5'_160  and  C4'_161 
REMARK       I    between atoms: C1'_163  and  N9_164 
REMARK       I    between atoms: C2_167  and  N2_168 
REMARK       I    between atoms: C2'_178  and  O2'_179 
REMARK       I    between atoms: C3'_181  and  O3'_182 
REMARK       I    between atoms: O3'_182  and  P_183 
REMARK       I    between atoms: P_183  and  O5'_186 
REMARK       I    between atoms: O5'_186  and  C5'_187 
REMARK       I    between atoms: C5'_187  and  C4'_188 
REMARK       I    between atoms: C1'_190  and  N1_191 
REMARK       I    between atoms: C2'_200  and  O2'_201 
REMARK       I    between atoms: C3'_203  and  O3'_204 
REMARK       I    between atoms: O3'_204  and  P_205 
REMARK       I    between atoms: P_205  and  O5'_208 
REMARK       I    between atoms: O5'_208  and  C5'_209 
REMARK       I    between atoms: C5'_209  and  C4'_210 
REMARK       I    between atoms: C1'_212  and  N9_213 
REMARK       I    between atoms: C6_218  and  N6_219 
REMARK       I    between atoms: C2'_225  and  O2'_226 
REMARK       I    between atoms: C3'_228  and  O3'_229 
REMARK       I    between atoms: O3'_229  and  P_230 
REMARK       I    between atoms: P_230  and  O5'_233 
REMARK       I    between atoms: O5'_233  and  C5'_234 
REMARK       I    between atoms: C5'_234  and  C4'_235 
REMARK       I    between atoms: C1'_237  and  N9_238 
REMARK       I    between atoms: C2_241  and  N2_242 
REMARK       I    between atoms: C2'_252  and  O2'_253 
REMARK       I    between atoms: C3'_255  and  O3'_256 
REMARK       I    between atoms: O3'_256  and  P_257 
REMARK       I    between atoms: P_257  and  O5'_260 
REMARK       I    between atoms: O5'_260  and  C5'_261 
REMARK       I    between atoms: C5'_261  and  C4'_262 
REMARK       I    between atoms: C1'_264  and  N1_265 
REMARK       I    between atoms: C4_270  and  N4_271 
REMARK       I    between atoms: C2'_275  and  O2'_276 
REMARK       I    between atoms: C3'_278  and  O3'_279 
REMARK       I    between atoms: O3'_279  and  P_280 
REMARK       I    between atoms: P_280  and  O5'_283 
REMARK       I    between atoms: O5'_283  and  C5'_284 
REMARK       I    between atoms: C5'_284  and  C4'_285 
REMARK       I    between atoms: C1'_287  and  N1_288 
REMARK       I    between atoms: C2'_297  and  O2'_298 
REMARK       I    between atoms: C3'_300  and  O3'_301 
REMARK       I    between atoms: O3'_301  and  P_302 
REMARK       I    between atoms: P_302  and  O5'_305 
REMARK       I    between atoms: O5'_305  and  C5'_306 
REMARK       I    between atoms: C5'_306  and  C4'_307 
REMARK       I    between atoms: C1'_309  and  N1_310 
REMARK    1  A    between atoms: C4_315  and  N4_316 
REMARK    2  A    between atoms: C2'_320  and  O2'_321 
REMARK    3  A    between atoms: C3'_323  and  O3'_324 
REMARK    4  A    between atoms: O3'_324  and  P_325 
REMARK    5  A    between atoms: P_325  and  O5'_328 
REMARK    6  A    between atoms: O5'_328  and  C5'_329 
REMARK    7  A    between atoms: C5'_329  and  C4'_330 
REMARK    8  A    between atoms: C1'_332  and  N9_333 
REMARK    9  A    between atoms: C6_338  and  N6_339 
REMARK   10  A    between atoms: C2'_345  and  O2'_346 
REMARK   11  A    between atoms: C3'_348  and  O3'_349 
REMARK   12  A    between atoms: O3'_349  and  P_350 
REMARK   13  A    between atoms: P_350  and  O5'_353 
REMARK   14  A    between atoms: O5'_353  and  C5'_354 
REMARK   15  A    between atoms: C5'_354  and  C4'_355 
REMARK   16  A    between atoms: C1'_357  and  N9_358 
REMARK   17  A    between atoms: C2_361  and  N2_362 
REMARK   18  A    between atoms: C2'_372  and  O2'_373 
REMARK   19  A    between atoms: C3'_375  and  O3'_376 
REMARK   20  A    between atoms: O3'_376  and  P_377 
REMARK   21  A    between atoms: P_377  and  O5'_380 
REMARK   22  A    between atoms: O5'_380  and  C5'_381 
REMARK   23  A    between atoms: C5'_381  and  C4'_382 
REMARK   24  A    between atoms: C1'_384  and  N1_385 
REMARK   25  A    between atoms: C2'_394  and  O2'_395 
REMARK   26  A    between atoms: C3'_397  and  O3'_398 
REMARK   27  A    between atoms: O3'_398  and  P_399 
REMARK   28  A    between atoms: P_399  and  O5'_402 
REMARK   29  A    between atoms: O5'_402  and  C5'_403 
REMARK   30  A    between atoms: C5'_403  and  C4'_404 
REMARK   31  A    between atoms: C1'_406  and  N1_407 
REMARK   32  A    between atoms: C2'_416  and  O2'_417 
REMARK   33  A    between atoms: C3'_419  and  O3'_420 
REMARK   34  A    between atoms: O3'_420  and  P_421 
REMARK   35  A    between atoms: P_421  and  O5'_424 
REMARK   36  A    between atoms: O5'_424  and  C5'_425 
REMARK   37  A    between atoms: C5'_425  and  C4'_426 
REMARK   38  A    between atoms: C1'_428  and  N9_429 
REMARK   39  A    between atoms: C2_432  and  N2_433 
REMARK   40  A    between atoms: C2'_443  and  O2'_444 
REMARK   41  A    between atoms: C3'_446  and  O3'_447 
REMARK   42  A    between atoms: O3'_447  and  P_448 
REMARK   43  A    between atoms: P_448  and  O5'_451 
REMARK   44  A    between atoms: O5'_451  and  C5'_452 
REMARK   45  A    between atoms: C5'_452  and  C4'_453 
REMARK   46  A    between atoms: C1'_455  and  N9_456 
REMARK   47  A    between atoms: C2_459  and  N2_460 
REMARK   48  A    between atoms: C2'_470  and  O2'_471 
REMARK   49  A    between atoms: C3'_473  and  O3'_474 
REMARK   50  A    between atoms: O3'_474  and  P_475 
REMARK   51  A    between atoms: P_475  and  O5'_478 
REMARK   52  A    between atoms: O5'_478  and  C5'_479 
REMARK   53  A    between atoms: C5'_479  and  C4'_480 
REMARK   54  A    between atoms: C1'_482  and  N9_483 
REMARK   55  A    between atoms: C2_486  and  N2_487 
REMARK   56  A    between atoms: C2'_497  and  O2'_498 
REMARK   57  A    between atoms: C3'_500  and  O3'_501 
REMARK   58  A    between atoms: O3'_501  and  P_502 
REMARK   59  A    between atoms: P_502  and  O5'_505 
REMARK   60  A    between atoms: O5'_505  and  C5'_506 
REMARK   61  A    between atoms: C5'_506  and  C4'_507 
REMARK   62  A    between atoms: C1'_509  and  N9_510 
REMARK   63  A    between atoms: C6_515  and  N6_516 
REMARK   64  A    between atoms: C2'_522  and  O2'_523 
REMARK   65  A    between atoms: C3'_525  and  O3'_526 
REMARK   66  A    between atoms: O3'_526  and  P_527 
REMARK   67  A    between atoms: P_527  and  O5'_530 
REMARK   68  A    between atoms: O5'_530  and  C5'_531 
REMARK   69  A    between atoms: C5'_531  and  C4'_532 
REMARK   70  A    between atoms: C1'_534  and  N9_535 
REMARK   71  A    between atoms: C2_538  and  N2_539 
REMARK   72  A    between atoms: C2'_549  and  O2'_550 
REMARK   73  A    between atoms: C3'_552  and  O3'_553 
REMARK   74  A    between atoms: O3'_553  and  P_554 
REMARK   75  A    between atoms: P_554  and  O5'_557 
REMARK   76  A    between atoms: O5'_557  and  C5'_558 
REMARK   77  A    between atoms: C5'_558  and  C4'_559 
REMARK   78  A    between atoms: C1'_561  and  N9_562 
REMARK   79  A    between atoms: C6_567  and  N6_568 
REMARK   80  A    between atoms: C2'_574  and  O2'_575 
REMARK   81  A    between atoms: C3'_577  and  O3'_578 
REMARK   82  A    between atoms: O3'_578  and  P_579 
REMARK   83  A    between atoms: P_579  and  O5'_582 
REMARK   84  A    between atoms: O5'_582  and  C5'_583 
REMARK   85  A    between atoms: C5'_583  and  C4'_584 
REMARK   86  A    between atoms: C1'_586  and  N9_587 
REMARK   87  A    between atoms: C2_590  and  N2_591 
REMARK   88  A    between atoms: C2'_601  and  O2'_602 
REMARK   89  A    between atoms: C3'_604  and  O3'_605 
REMARK   90  A    between atoms: O3'_605  and  P_606 
REMARK   91  A    between atoms: P_606  and  O5'_609 
REMARK   92  A    between atoms: O5'_609  and  C5'_610 
REMARK   93  A    between atoms: C5'_610  and  C4'_611 
REMARK   94  A    between atoms: C1'_613  and  N1_614 
REMARK       I    between atoms: C4_619  and  N4_620 
REMARK       I    between atoms: C2'_624  and  O2'_625 
REMARK       I    between atoms: C3'_627  and  O3'_628 
REMARK       I    between atoms: O3'_628  and  P_629 
REMARK       I    between atoms: P_629  and  O5'_632 
REMARK       I    between atoms: O5'_632  and  C5'_633 
REMARK       I    between atoms: C5'_633  and  C4'_634 
REMARK       I    between atoms: C1'_636  and  N9_637 
REMARK       I    between atoms: C2_640  and  N2_641 
REMARK       I    between atoms: C2'_651  and  O2'_652 
REMARK       I    between atoms: C3'_654  and  O3'_655 
REMARK       I    between atoms: O3'_655  and  P_656 
REMARK       I    between atoms: P_656  and  O5'_659 
REMARK       I    between atoms: O5'_659  and  C5'_660 
REMARK       I    between atoms: C5'_660  and  C4'_661 
REMARK       I    between atoms: C1'_663  and  N1_664 
REMARK       I    between atoms: C4_669  and  N4_670 
REMARK       I    between atoms: C2'_674  and  O2'_675 
REMARK       I    between atoms: C3'_677  and  O3'_678 
REMARK       I    between atoms: O3'_678  and  P_679 
REMARK       I    between atoms: P_679  and  O5'_682 
REMARK       I    between atoms: O5'_682  and  C5'_683 
REMARK       I    between atoms: C5'_683  and  C4'_684 
REMARK       I    between atoms: C1'_686  and  N1_687 
REMARK       I    between atoms: C2'_696  and  O2'_697 
REMARK       I    between atoms: C3'_699  and  O3'_700 
REMARK       I    between atoms: O3'_700  and  P_701 
REMARK       I    between atoms: P_701  and  O5'_704 
REMARK       I    between atoms: O5'_704  and  C5'_705 
REMARK       I    between atoms: C5'_705  and  C4'_706 
REMARK       I    between atoms: C1'_708  and  N1_709 
REMARK       I    between atoms: C2'_718  and  O2'_719 
REMARK       I    between atoms: C3'_721  and  O3'_722 
REMARK       I    between atoms: O3'_722  and  P_723 
REMARK       I    between atoms: P_723  and  O5'_726 
REMARK       I    between atoms: O5'_726  and  C5'_727 
REMARK       I    between atoms: C5'_727  and  C4'_728 
REMARK       I    between atoms: C1'_730  and  N1_731 
REMARK       I    between atoms: C4_736  and  N4_737 
REMARK       I    between atoms: C2'_741  and  O2'_742 
REMARK       I    between atoms: C3'_744  and  O3'_745 
REMARK       I    between atoms: O3'_745  and  P_746 
REMARK       I    between atoms: P_746  and  O5'_749 
REMARK       I    between atoms: O5'_749  and  C5'_750 
REMARK       I    between atoms: C5'_750  and  C4'_751 
REMARK       I    between atoms: C1'_753  and  N9_754 
REMARK   95  A    between atoms: C6_759  and  N6_760 
REMARK   96  A    between atoms: C2'_766  and  O2'_767 
REMARK   97  A    between atoms: C3'_769  and  O3'_770 
REMARK   98  A    between atoms: O3'_770  and  P_771 
REMARK   99  A    between atoms: P_771  and  O5'_774 
REMARK       I    between atoms: O5'_774  and  C5'_775 
REMARK       I    between atoms: C5'_775  and  C4'_776 
REMARK       I    between atoms: C1'_778  and  N9_779 
REMARK       I    between atoms: C6_784  and  N6_785 
REMARK       I    between atoms: C2'_791  and  O2'_792 
REMARK       I    between atoms: C3'_794  and  O3'_795 
REMARK       I    between atoms: O3'_795  and  P_796 
REMARK       I    between atoms: P_796  and  O5'_799 
REMARK       I    between atoms: O5'_799  and  C5'_800 
REMARK       I    between atoms: C5'_800  and  C4'_801 
REMARK       I    between atoms: C1'_803  and  N1_804 
REMARK       I    between atoms: C2'_813  and  O2'_814 
REMARK       I    between atoms: C3'_816  and  O3'_817 
REMARK       I    between atoms: O3'_817  and  P_818 
REMARK       I    between atoms: P_818  and  O5'_821 
REMARK       I    between atoms: O5'_821  and  C5'_822 
REMARK       I    between atoms: C5'_822  and  C4'_823 
REMARK       I    between atoms: C1'_825  and  N9_826 
REMARK       I    between atoms: C2_829  and  N2_830 
REMARK       I    between atoms: C2'_840  and  O2'_841 
REMARK       I    between atoms: C3'_843  and  O3'_844 
REMARK       I    between atoms: O3'_844  and  P_845 
REMARK       I    between atoms: P_845  and  O5'_848 
REMARK       I    between atoms: O5'_848  and  C5'_849 
REMARK       I    between atoms: C5'_849  and  C4'_850 
REMARK       I    between atoms: C1'_852  and  N9_853 
REMARK       I    between atoms: C2_856  and  N2_857 
REMARK       I    between atoms: C2'_867  and  O2'_868 
REMARK       I    between atoms: C3'_870  and  O3'_871 
REMARK       I    between atoms: O3'_871  and  P_872 
REMARK       I    between atoms: P_872  and  O5'_875 
REMARK       I    between atoms: O5'_875  and  C5'_876 
REMARK       I    between atoms: C5'_876  and  C4'_877 
REMARK       I    between atoms: C1'_879  and  N1_880 
REMARK       I    between atoms: C4_885  and  N4_886 
REMARK       I    between atoms: C2'_890  and  O2'_891 
REMARK       I    between atoms: C3'_893  and  O3'_894 
REMARK       I    between atoms: O3'_894  and  P_895 
REMARK       I    between atoms: P_895  and  O5'_898 
REMARK       I    between atoms: O5'_898  and  C5'_899 
REMARK       I    between atoms: C5'_899  and  C4'_900 
REMARK       I    between atoms: C1'_902  and  N9_903 
REMARK       I    between atoms: C6_908  and  N6_909 
REMARK       I    between atoms: C2'_915  and  O2'_916 
REMARK       I    between atoms: C3'_918  and  O3'_919 
REMARK       I    between atoms: O3'_919  and  P_920 
REMARK       I    between atoms: P_920  and  O5'_923 
REMARK       I    between atoms: O5'_923  and  C5'_924 
REMARK       I    between atoms: C5'_924  and  C4'_925 
REMARK       I    between atoms: C1'_927  and  N1_928 
REMARK       I    between atoms: C2'_937  and  O2'_938 
REMARK       I    between atoms: C3'_940  and  O3'_941 
REMARK       I    between atoms: O3'_941  and  P_942 
REMARK       I    between atoms: P_942  and  O5'_945 
REMARK       I    between atoms: O5'_945  and  C5'_946 
REMARK       I    between atoms: C5'_946  and  C4'_947 
REMARK       I    between atoms: C1'_949  and  N1_950 
REMARK       I    between atoms: C2'_959  and  O2'_960 
REMARK       I    between atoms: C3'_962  and  O3'_963 
REMARK       I    between atoms: O3'_963  and  P_964 
REMARK       I    between atoms: P_964  and  O5'_967 
REMARK       I    between atoms: O5'_967  and  C5'_968 
REMARK       I    between atoms: C5'_968  and  C4'_969 
REMARK       I    between atoms: C1'_971  and  N9_972 
REMARK       I    between atoms: C2_975  and  N2_976 
REMARK       I    between atoms: C2'_986  and  O2'_987 
REMARK       I    between atoms: C3'_989  and  O3'_990 
REMARK       I    between atoms: O3'_990  and  P_991 
REMARK       I    between atoms: P_991  and  O5'_994 
REMARK       I    between atoms: O5'_994  and  C5'_995 
REMARK       I    between atoms: C5'_995  and  C4'_996 
REMARK       I    between atoms: C1'_998  and  N9_999 
REMARK       I    between atoms: C6_1004  and  N6_1005 
REMARK       I    between atoms: C2'_1011  and  O2'_1012 
REMARK       I    between atoms: C3'_1014  and  O3'_1015 
REMARK       I    between atoms: O3'_1015  and  P_1016 
REMARK       I    between atoms: P_1016  and  O5'_1019 
REMARK       I    between atoms: O5'_1019  and  C5'_1020 
REMARK       I    between atoms: C5'_1020  and  C4'_1021 
REMARK       I    between atoms: C1'_1023  and  N9_1024 
REMARK       I    between atoms: C6_1029  and  N6_1030 
REMARK       I    between atoms: C2'_1036  and  O2'_1037 
REMARK       I    between atoms: C3'_1039  and  O3'_1040 
REMARK       I    between atoms: O3'_1040  and  P_1041 
REMARK       I    between atoms: P_1041  and  O5'_1044 
REMARK       I    between atoms: O5'_1044  and  C5'_1045 
REMARK       I    between atoms: C5'_1045  and  C4'_1046 
REMARK       I    between atoms: C1'_1048  and  N9_1049 
REMARK       I    between atoms: C2_1052  and  N2_1053 
REMARK       I    between atoms: C2'_1063  and  O2'_1064 
REMARK       I    between atoms: C3'_1066  and  O3'_1067 
REMARK       I    between atoms: O3'_1067  and  P_1068 
REMARK       I    between atoms: P_1068  and  O5'_1071 
REMARK       I    between atoms: O5'_1071  and  C5'_1072 
REMARK       I    between atoms: C5'_1072  and  C4'_1073 
REMARK       I    between atoms: C1'_1075  and  N9_1076 
REMARK       I    between atoms: C6_1081  and  N6_1082 
REMARK       I    between atoms: C2'_1088  and  O2'_1089 
REMARK       I    between atoms: C3'_1091  and  O3'_1092 
REMARK       I    between atoms: O3'_1092  and  P_1093 
REMARK       I    between atoms: P_1093  and  O5'_1096 
REMARK       I    between atoms: O5'_1096  and  C5'_1097 
REMARK       I    between atoms: C5'_1097  and  C4'_1098 
REMARK       I    between atoms: C1'_1100  and  N9_1101 
REMARK       I    between atoms: C2_1104  and  N2_1105 
REMARK       I    between atoms: C2'_1115  and  O2'_1116 
REMARK       I    between atoms: C3'_1118  and  O3'_1119 
REMARK       I    between atoms: O3'_1119  and  P_1120 
REMARK       I    between atoms: P_1120  and  O5'_1123 
REMARK       I    between atoms: O5'_1123  and  C5'_1124 
REMARK       I    between atoms: C5'_1124  and  C4'_1125 
REMARK       I    between atoms: C1'_1127  and  N9_1128 
REMARK       I    between atoms: C2_1131  and  N2_1132 
REMARK       I    between atoms: C2'_1142  and  O2'_1143 
REMARK       I    between atoms: C3'_1145  and  O3'_1146 
REMARK       I    between atoms: O3'_1146  and  P_1147 
REMARK       I    between atoms: P_1147  and  O5'_1150 
REMARK       I    between atoms: O5'_1150  and  C5'_1151 
REMARK       I    between atoms: C5'_1151  and  C4'_1152 
REMARK       I    between atoms: C1'_1154  and  N1_1155 
REMARK       I    between atoms: C2'_1164  and  O2'_1165 
REMARK       I    between atoms: C3'_1167  and  O3'_1168 
REMARK       I    between atoms: O3'_1168  and  P_1169 
REMARK       I    between atoms: P_1169  and  O5'_1172 
REMARK       I    between atoms: O5'_1172  and  C5'_1173 
REMARK       I    between atoms: C5'_1173  and  C4'_1174 
REMARK       I    between atoms: C1'_1176  and  N1_1177 
REMARK       I    between atoms: C4_1182  and  N4_1183 
REMARK       I    between atoms: C2'_1187  and  O2'_1188 
REMARK       I    between atoms: C3'_1190  and  O3'_1191 
REMARK       I    between atoms: O3'_1191  and  P_1192 
REMARK       I    between atoms: P_1192  and  O5'_1195 
REMARK       I    between atoms: O5'_1195  and  C5'_1196 
REMARK       I    between atoms: C5'_1196  and  C4'_1197 
REMARK       I    between atoms: C1'_1199  and  N9_1200 
REMARK       I    between atoms: C6_1205  and  N6_1206 
REMARK       I    between atoms: C2'_1212  and  O2'_1213 
REMARK       I    between atoms: C3'_1215  and  O3'_1216 
REMARK       I    between atoms: O3'_1216  and  P_1217 
REMARK       I    between atoms: P_1217  and  O5'_1220 
REMARK       I    between atoms: O5'_1220  and  C5'_1221 
REMARK       I    between atoms: C5'_1221  and  C4'_1222 
REMARK       I    between atoms: C1'_1224  and  N9_1225 
REMARK       I    between atoms: C2_1228  and  N2_1229 
REMARK       I    between atoms: C2'_1239  and  O2'_1240 
REMARK       I    between atoms: C3'_1242  and  O3'_1243 
REMARK       I    between atoms: O3'_1243  and  P_1244 
REMARK       I    between atoms: P_1244  and  O5'_1247 
REMARK       I    between atoms: O5'_1247  and  C5'_1248 
REMARK       I    between atoms: C5'_1248  and  C4'_1249 
REMARK       I    between atoms: C1'_1251  and  N1_1252 
REMARK       I    between atoms: C4_1257  and  N4_1258 
REMARK       I    between atoms: C2'_1262  and  O2'_1263 
REMARK       I    between atoms: C3'_1265  and  O3'_1266 
REMARK       I    between atoms: O3'_1266  and  P_1267 
REMARK       I    between atoms: P_1267  and  O5'_1270 
REMARK       I    between atoms: O5'_1270  and  C5'_1271 
REMARK       I    between atoms: C5'_1271  and  C4'_1272 
REMARK       I    between atoms: C1'_1274  and  N1_1275 
REMARK       I    between atoms: C4_1280  and  N4_1281 
REMARK       I    between atoms: C2'_1285  and  O2'_1286 
REMARK       I    between atoms: C3'_1288  and  O3'_1289 
REMARK       I    between atoms: O3'_1289  and  P_1290 
REMARK       I    between atoms: P_1290  and  O5'_1293 
REMARK       I    between atoms: O5'_1293  and  C5'_1294 
REMARK       I    between atoms: C5'_1294  and  C4'_1295 
REMARK       I    between atoms: C1'_1297  and  N1_1298 
REMARK       I    between atoms: C4_1303  and  N4_1304 
REMARK       I    between atoms: C2'_1308  and  O2'_1309 
REMARK       I    between atoms: C3'_1311  and  O3'_1312 
REMARK       I    between atoms: O3'_1312  and  P_1313 
REMARK       I    between atoms: P_1313  and  O5'_1316 
REMARK       I    between atoms: O5'_1316  and  C5'_1317 
REMARK       I    between atoms: C5'_1317  and  C4'_1318 
REMARK       I    between atoms: C1'_1320  and  N1_1321 
REMARK       I    between atoms: C4_1326  and  N4_1327 
REMARK       I    between atoms: C2'_1331  and  O2'_1332 
REMARK       I    between atoms: C3'_1334  and  O3'_1335 
REMARK       I    between atoms: O3'_1335  and  P_1336 
REMARK       I    between atoms: P_1336  and  O5'_1339 
REMARK       I    between atoms: O5'_1339  and  C5'_1340 
REMARK       I    between atoms: C5'_1340  and  C4'_1341 
REMARK       I    between atoms: C1'_1343  and  N1_1344 
REMARK       I    between atoms: C4_1349  and  N4_1350 
REMARK       I    between atoms: C2'_1354  and  O2'_1355 
REMARK       I    between atoms: C3'_1357  and  O3'_1358 
ROOT
ATOM      1 5'HO  DG A   1     106.666  99.847 216.300  1.00  0.00     0.209 HD
ATOM      2  O5'  DG A   1     106.666 100.788 216.104  1.00  0.00    -0.398 OA
ATOM      3  C5'  DG A   1     107.388 100.961 214.880  1.00  0.00     0.198 C 
ATOM      4  C4'  DG A   1     107.635  99.630 214.209  1.00  0.00     0.180 C 
ATOM      5  O4'  DG A   1     108.575  98.869 215.017  1.00  0.00    -0.353 OA
ATOM      6  C1'  DG A   1     108.145  97.522 215.115  1.00  0.00     0.262 C 
ATOM      7  N9   DG A   1     107.745  97.268 216.496  1.00  0.00    -0.293 N 
ATOM      8  C4   DG A   1     107.276  96.081 217.006  1.00  0.00     0.187 A 
ATOM      9  N3   DG A   1     107.101  94.935 216.315  1.00  0.00    -0.044 NA
ATOM     10  C2   DG A   1     106.638  93.964 217.082  1.00  0.00     0.703 A 
ATOM     11  N2   DG A   1     106.409  92.758 216.557  1.00  0.00    -0.233 N 
ATOM     12  H21  DG A   1     106.593  92.602 215.577  1.00  0.00     0.174 HD
ATOM     13  H22  DG A   1     106.056  92.009 217.138  1.00  0.00     0.174 HD
ATOM     14  N1   DG A   1     106.367  94.103 218.418  1.00  0.00    -0.153 N 
ATOM     15  H1   DG A   1     106.015  93.297 218.911  1.00  0.00     0.187 HD
ATOM     16  C6   DG A   1     106.537  95.272 219.151  1.00  0.00     0.292 A 
ATOM     17  O6   DG A   1     106.261  95.286 220.358  1.00  0.00    -0.265 OA
ATOM     18  C5   DG A   1     107.035  96.327 218.342  1.00  0.00     0.173 A 
ATOM     19  N7   DG A   1     107.345  97.641 218.666  1.00  0.00    -0.234 NA
ATOM     20  C8   DG A   1     107.761  98.158 217.543  1.00  0.00     0.214 A 
ATOM     21  C2'  DG A   1     107.018  97.334 214.101  1.00  0.00     0.199 C 
ATOM     22  O2'  DG A   1     107.585  97.001 212.847  1.00  0.00    -0.388 OA
ATOM     23 2'HO  DG A   1     106.932  97.222 212.182  1.00  0.00     0.210 HD
ATOM     24  C3'  DG A   1     106.411  98.731 214.077  1.00  0.00     0.198 C 
ATOM     25  O3'  DG A   1     105.699  98.995 212.871  1.00  0.00    -0.279 OA
ATOM     26  P    DG A   2     104.099  98.832 212.834  1.00  0.00     0.408 P 
ATOM     27  OP1  DG A   2     103.648  99.255 211.483  1.00  0.00    -0.624 OA
ATOM     28  OP2  DG A   2     103.532  99.493 214.037  1.00  0.00    -0.624 OA
ATOM     29  O5'  DG A   2     103.869  97.261 212.968  1.00  0.00    -0.287 OA
ATOM     30  C5'  DG A   2     104.284  96.366 211.938  1.00  0.00     0.216 C 
ATOM     31  C4'  DG A   2     103.726  94.984 212.191  1.00  0.00     0.180 C 
ATOM     32  O4'  DG A   2     104.480  94.355 213.263  1.00  0.00    -0.353 OA
ATOM     33  C1'  DG A   2     103.609  93.569 214.059  1.00  0.00     0.262 C 
ATOM     34  N9   DG A   2     103.606  94.110 215.415  1.00  0.00    -0.293 N 
ATOM     35  C4   DG A   2     103.201  93.456 216.554  1.00  0.00     0.187 A 
ATOM     36  N3   DG A   2     102.737  92.191 216.620  1.00  0.00    -0.044 NA
ATOM     37  C2   DG A   2     102.425  91.845 217.855  1.00  0.00     0.703 A 
ATOM     38  N2   DG A   2     101.946  90.623 218.100  1.00  0.00    -0.233 N 
ATOM     39  H21  DG A   2     101.829  89.975 217.334  1.00  0.00     0.174 HD
ATOM     40  H22  DG A   2     101.702  90.348 219.041  1.00  0.00     0.174 HD
ATOM     41  N1   DG A   2     102.558  92.670 218.942  1.00  0.00    -0.153 N 
ATOM     42  H1   DG A   2     102.288  92.306 219.842  1.00  0.00     0.187 HD
ATOM     43  C6   DG A   2     103.036  93.974 218.900  1.00  0.00     0.292 A 
ATOM     44  O6   DG A   2     103.118  94.631 219.945  1.00  0.00    -0.265 OA
ATOM     45  C5   DG A   2     103.374  94.365 217.578  1.00  0.00     0.173 A 
ATOM     46  N7   DG A   2     103.878  95.564 217.093  1.00  0.00    -0.234 NA
ATOM     47  C8   DG A   2     103.999  95.365 215.809  1.00  0.00     0.214 A 
ATOM     48  C2'  DG A   2     102.234  93.593 213.393  1.00  0.00     0.199 C 
ATOM     49  O2'  DG A   2     102.153  92.516 212.477  1.00  0.00    -0.388 OA
ATOM     50 2'HO  DG A   2     101.225  92.300 212.389  1.00  0.00     0.210 HD
ATOM     51  C3'  DG A   2     102.284  94.934 212.672  1.00  0.00     0.198 C 
ATOM     52  O3'  DG A   2     101.360  95.010 211.591  1.00  0.00    -0.279 OA
ATOM     53  P    DG A   3      99.859  95.520 211.860  1.00  0.00     0.408 P 
ATOM     54  OP1  DG A   3      99.134  95.462 210.565  1.00  0.00    -0.624 OA
ATOM     55  OP2  DG A   3      99.926  96.804 212.604  1.00  0.00    -0.624 OA
ATOM     56  O5'  DG A   3      99.240  94.413 212.826  1.00  0.00    -0.287 OA
ATOM     57  C5'  DG A   3      98.690  93.208 212.302  1.00  0.00     0.216 C 
ATOM     58  C4'  DG A   3      98.481  92.197 213.409  1.00  0.00     0.180 C 
ATOM     59  O4'  DG A   3      99.552  92.307 214.380  1.00  0.00    -0.353 OA
ATOM     60  C1'  DG A   3      99.081  91.875 215.645  1.00  0.00     0.262 C 
ATOM     61  N9   DG A   3      99.417  92.890 216.639  1.00  0.00    -0.293 N 
ATOM     62  C4   DG A   3      99.198  92.804 217.993  1.00  0.00     0.187 A 
ATOM     63  N3   DG A   3      98.633  91.763 218.640  1.00  0.00    -0.044 NA
ATOM     64  C2   DG A   3      98.555  91.974 219.941  1.00  0.00     0.703 A 
ATOM     65  N2   DG A   3      98.014  91.045 220.733  1.00  0.00    -0.233 N 
ATOM     66  H21  DG A   3      97.670  90.189 220.325  1.00  0.00     0.174 HD
ATOM     67  H22  DG A   3      97.943  91.199 221.730  1.00  0.00     0.174 HD
ATOM     68  N1   DG A   3      99.001  93.113 220.563  1.00  0.00    -0.153 N 
ATOM     69  H1   DG A   3      98.892  93.170 221.562  1.00  0.00     0.187 HD
ATOM     70  C6   DG A   3      99.589  94.196 219.920  1.00  0.00     0.292 A 
ATOM     71  O6   DG A   3      99.959  95.173 220.580  1.00  0.00    -0.265 OA
ATOM     72  C5   DG A   3      99.676  93.986 218.518  1.00  0.00     0.173 A 
ATOM     73  N7   DG A   3     100.183  94.801 217.514  1.00  0.00    -0.234 NA
ATOM     74  C8   DG A   3     100.007  94.111 216.420  1.00  0.00     0.214 A 
ATOM     75  C2'  DG A   3      97.577  91.615 215.525  1.00  0.00     0.199 C 
ATOM     76  O2'  DG A   3      97.376  90.224 215.350  1.00  0.00    -0.388 OA
ATOM     77 2'HO  DG A   3      96.708  90.127 214.670  1.00  0.00     0.210 HD
ATOM     78  C3'  DG A   3      97.230  92.384 214.253  1.00  0.00     0.198 C 
ATOM     79  O3'  DG A   3      96.072  91.864 213.604  1.00  0.00    -0.279 OA
ATOM     80  P    DG A   4      94.616  92.432 213.990  1.00  0.00     0.408 P 
ATOM     81  OP1  DG A   4      93.616  91.585 213.290  1.00  0.00    -0.624 OA
ATOM     82  OP2  DG A   4      94.613  93.901 213.771  1.00  0.00    -0.624 OA
ATOM     83  O5'  DG A   4      94.491  92.157 215.555  1.00  0.00    -0.287 OA
ATOM     84  C5'  DG A   4      94.410  90.825 216.063  1.00  0.00     0.216 C 
ATOM     85  C4'  DG A   4      93.985  90.843 217.514  1.00  0.00     0.180 C 
ATOM     86  O4'  DG A   4      95.130  91.170 218.344  1.00  0.00    -0.353 OA
ATOM     87  C1'  DG A   4      94.687  91.837 219.513  1.00  0.00     0.262 C 
ATOM     88  N9   DG A   4      95.417  93.095 219.634  1.00  0.00    -0.293 N 
ATOM     89  C4   DG A   4      95.660  93.785 220.796  1.00  0.00     0.187 A 
ATOM     90  N3   DG A   4      95.267  93.416 222.032  1.00  0.00    -0.044 NA
ATOM     91  C2   DG A   4      95.648  94.285 222.950  1.00  0.00     0.703 A 
ATOM     92  N2   DG A   4      95.348  94.065 224.232  1.00  0.00    -0.233 N 
ATOM     93  H21  DG A   4      94.832  93.235 224.481  1.00  0.00     0.174 HD
ATOM     94  H22  DG A   4      95.633  94.721 224.946  1.00  0.00     0.174 HD
ATOM     95  N1   DG A   4      96.354  95.429 222.679  1.00  0.00    -0.153 N 
ATOM     96  H1   DG A   4      96.592  96.032 223.450  1.00  0.00     0.187 HD
ATOM     97  C6   DG A   4      96.771  95.830 221.415  1.00  0.00     0.292 A 
ATOM     98  O6   DG A   4      97.407  96.882 221.284  1.00  0.00    -0.265 OA
ATOM     99  C5   DG A   4      96.370  94.904 220.415  1.00  0.00     0.173 A 
ATOM    100  N7   DG A   4      96.574  94.916 219.042  1.00  0.00    -0.234 NA
ATOM    101  C8   DG A   4      95.993  93.825 218.623  1.00  0.00     0.214 A 
ATOM    102  C2'  DG A   4      93.172  92.022 219.403  1.00  0.00     0.199 C 
ATOM    103  O2'  DG A   4      92.539  90.965 220.101  1.00  0.00    -0.388 OA
ATOM    104 2'HO  DG A   4      91.607  91.178 220.150  1.00  0.00     0.210 HD
ATOM    105  C3'  DG A   4      92.959  91.898 217.898  1.00  0.00     0.198 C 
ATOM    106  O3'  DG A   4      91.633  91.492 217.564  1.00  0.00    -0.279 OA
ATOM    107  P    DG A   5      90.540  92.594 217.136  1.00  0.00     0.408 P 
ATOM    108  OP1  DG A   5      89.541  91.907 216.278  1.00  0.00    -0.624 OA
ATOM    109  OP2  DG A   5      91.244  93.795 216.620  1.00  0.00    -0.624 OA
ATOM    110  O5'  DG A   5      89.828  92.990 218.508  1.00  0.00    -0.287 OA
ATOM    111  C5'  DG A   5      88.745  92.217 219.027  1.00  0.00     0.216 C 
ATOM    112  C4'  DG A   5      88.796  92.191 220.538  1.00  0.00     0.180 C 
ATOM    113  O4'  DG A   5      90.182  92.255 220.969  1.00  0.00    -0.353 OA
ATOM    114  C1'  DG A   5      90.275  93.002 222.169  1.00  0.00     0.262 C 
ATOM    115  N9   DG A   5      91.150  94.146 221.937  1.00  0.00    -0.293 N 
ATOM    116  C4   DG A   5      91.902  94.803 222.882  1.00  0.00     0.187 A 
ATOM    117  N3   DG A   5      91.965  94.503 224.196  1.00  0.00    -0.044 NA
ATOM    118  C2   DG A   5      92.775  95.314 224.849  1.00  0.00     0.703 A 
ATOM    119  N2   DG A   5      92.956  95.157 226.164  1.00  0.00    -0.233 N 
ATOM    120  H21  DG A   5      92.468  94.416 226.645  1.00  0.00     0.174 HD
ATOM    121  H22  DG A   5      93.579  95.767 226.673  1.00  0.00     0.174 HD
ATOM    122  N1   DG A   5      93.470  96.341 224.264  1.00  0.00    -0.153 N 
ATOM    123  H1   DG A   5      94.065  96.898 224.858  1.00  0.00     0.187 HD
ATOM    124  C6   DG A   5      93.420  96.673 222.916  1.00  0.00     0.292 A 
ATOM    125  O6   DG A   5      94.087  97.622 222.494  1.00  0.00    -0.265 OA
ATOM    126  C5   DG A   5      92.553  95.808 222.197  1.00  0.00     0.173 A 
ATOM    127  N7   DG A   5      92.218  95.784 220.850  1.00  0.00    -0.234 NA
ATOM    128  C8   DG A   5      91.386  94.784 220.744  1.00  0.00     0.214 A 
ATOM    129  C2'  DG A   5      88.857  93.397 222.584  1.00  0.00     0.199 C 
ATOM    130  O2'  DG A   5      88.347  92.410 223.459  1.00  0.00    -0.388 OA
ATOM    131 2'HO  DG A   5      87.458  92.215 223.165  1.00  0.00     0.210 HD
ATOM    132  C3'  DG A   5      88.134  93.368 221.242  1.00  0.00     0.198 C 
ATOM    133  O3'  DG A   5      86.730  93.176 221.392  1.00  0.00    -0.279 OA
ATOM    134  P    DT A   6      85.755  94.452 221.510  1.00  0.00     0.408 P 
ATOM    135  OP1  DT A   6      84.445  93.963 222.008  1.00  0.00    -0.624 OA
ATOM    136  OP2  DT A   6      85.820  95.203 220.231  1.00  0.00    -0.624 OA
ATOM    137  O5'  DT A   6      86.423  95.346 222.648  1.00  0.00    -0.287 OA
ATOM    138  C5'  DT A   6      86.362  94.960 224.020  1.00  0.00     0.216 C 
ATOM    139  C4'  DT A   6      86.749  96.120 224.908  1.00  0.00     0.180 C 
ATOM    140  O4'  DT A   6      88.188  96.307 224.859  1.00  0.00    -0.353 OA
ATOM    141  C1'  DT A   6      88.491  97.685 225.014  1.00  0.00     0.264 C 
ATOM    142  N1   DT A   6      89.265  98.128 223.845  1.00  0.00    -0.280 N 
ATOM    143  C6   DT A   6      89.230  97.436 222.654  1.00  0.00     0.104 A 
ATOM    144  C2   DT A   6      90.030  99.272 223.981  1.00  0.00     0.331 A 
ATOM    145  O2   DT A   6      90.090  99.910 225.015  1.00  0.00    -0.246 OA
ATOM    146  N3   DT A   6      90.725  99.642 222.859  1.00  0.00    -0.275 N 
ATOM    147  H3   DT A   6      91.272 100.487 222.928  1.00  0.00     0.173 HD
ATOM    148  C4   DT A   6      90.738  99.000 221.643  1.00  0.00     0.250 A 
ATOM    149  O4   DT A   6      91.425  99.454 220.729  1.00  0.00    -0.268 OA
ATOM    150  C5   DT A   6      89.925  97.825 221.581  1.00  0.00     0.092 A 
ATOM    151  C2'  DT A   6      87.168  98.432 225.188  1.00  0.00     0.199 C 
ATOM    152  O2'  DT A   6      86.891  98.543 226.571  1.00  0.00    -0.388 OA
ATOM    153 2'HO  DT A   6      86.329  99.311 226.682  1.00  0.00     0.210 HD
ATOM    154  C3'  DT A   6      86.200  97.478 224.501  1.00  0.00     0.198 C 
ATOM    155  O3'  DT A   6      84.853  97.657 224.930  1.00  0.00    -0.279 OA
ATOM    156  P    DG A   7      83.886  98.660 224.126  1.00  0.00     0.408 P 
ATOM    157  OP1  DG A   7      82.518  98.490 224.679  1.00  0.00    -0.624 OA
ATOM    158  OP2  DG A   7      84.117  98.474 222.671  1.00  0.00    -0.624 OA
ATOM    159  O5'  DG A   7      84.409 100.109 224.532  1.00  0.00    -0.287 OA
ATOM    160  C5'  DG A   7      84.191 100.628 225.843  1.00  0.00     0.216 C 
ATOM    161  C4'  DG A   7      84.956 101.920 226.031  1.00  0.00     0.180 C 
ATOM    162  O4'  DG A   7      86.361 101.702 225.746  1.00  0.00    -0.353 OA
ATOM    163  C1'  DG A   7      86.941 102.920 225.307  1.00  0.00     0.262 C 
ATOM    164  N9   DG A   7      87.655 102.670 224.059  1.00  0.00    -0.293 N 
ATOM    165  C4   DG A   7      88.634 103.462 223.508  1.00  0.00     0.187 A 
ATOM    166  N3   DG A   7      89.110 104.613 224.028  1.00  0.00    -0.044 NA
ATOM    167  C2   DG A   7      90.049 105.147 223.268  1.00  0.00     0.703 A 
ATOM    168  N2   DG A   7      90.630 106.290 223.637  1.00  0.00    -0.233 N 
ATOM    169  H21  DG A   7      90.345 106.737 224.496  1.00  0.00     0.174 HD
ATOM    170  H22  DG A   7      91.343 106.713 223.058  1.00  0.00     0.174 HD
ATOM    171  N1   DG A   7      90.488 104.598 222.090  1.00  0.00    -0.153 N 
ATOM    172  H1   DG A   7      91.211 105.091 221.588  1.00  0.00     0.187 HD
ATOM    173  C6   DG A   7      90.014 103.416 221.534  1.00  0.00     0.292 A 
ATOM    174  O6   DG A   7      90.479 103.013 220.462  1.00  0.00    -0.265 OA
ATOM    175  C5   DG A   7      89.004 102.829 222.341  1.00  0.00     0.173 A 
ATOM    176  N7   DG A   7      88.272 101.662 222.159  1.00  0.00    -0.234 NA
ATOM    177  C8   DG A   7      87.487 101.611 223.201  1.00  0.00     0.214 A 
ATOM    178  C2'  DG A   7      85.819 103.951 225.167  1.00  0.00     0.199 C 
ATOM    179  O2'  DG A   7      85.794 104.753 226.334  1.00  0.00    -0.388 OA
ATOM    180 2'HO  DG A   7      85.289 105.538 226.117  1.00  0.00     0.210 HD
ATOM    181  C3'  DG A   7      84.587 103.055 225.091  1.00  0.00     0.198 C 
ATOM    182  O3'  DG A   7      83.400 103.725 225.506  1.00  0.00    -0.279 OA
ATOM    183  P    DT A   8      82.561 104.597 224.446  1.00  0.00     0.408 P 
ATOM    184  OP1  DT A   8      81.494 105.304 225.199  1.00  0.00    -0.624 OA
ATOM    185  OP2  DT A   8      82.194 103.717 223.305  1.00  0.00    -0.624 OA
ATOM    186  O5'  DT A   8      83.607 105.678 223.919  1.00  0.00    -0.287 OA
ATOM    187  C5'  DT A   8      83.607 107.014 224.425  1.00  0.00     0.216 C 
ATOM    188  C4'  DT A   8      84.990 107.618 224.316  1.00  0.00     0.180 C 
ATOM    189  O4'  DT A   8      85.953 106.573 224.019  1.00  0.00    -0.353 OA
ATOM    190  C1'  DT A   8      86.986 107.094 223.200  1.00  0.00     0.264 C 
ATOM    191  N1   DT A   8      87.057 106.289 221.972  1.00  0.00    -0.280 N 
ATOM    192  C6   DT A   8      86.082 105.366 221.663  1.00  0.00     0.104 A 
ATOM    193  C2   DT A   8      88.139 106.487 221.133  1.00  0.00     0.331 A 
ATOM    194  O2   DT A   8      89.021 107.293 221.368  1.00  0.00    -0.246 OA
ATOM    195  N3   DT A   8      88.152 105.706 220.008  1.00  0.00    -0.275 N 
ATOM    196  H3   DT A   8      88.931 105.837 219.382  1.00  0.00     0.173 HD
ATOM    197  C4   DT A   8      87.217 104.766 219.640  1.00  0.00     0.250 A 
ATOM    198  O4   DT A   8      87.373 104.140 218.592  1.00  0.00    -0.268 OA
ATOM    199  C5   DT A   8      86.129 104.620 220.555  1.00  0.00     0.092 A 
ATOM    200  C2'  DT A   8      86.686 108.573 222.950  1.00  0.00     0.199 C 
ATOM    201  O2'  DT A   8      87.381 109.343 223.913  1.00  0.00    -0.388 OA
ATOM    202 2'HO  DT A   8      86.718 109.778 224.449  1.00  0.00     0.210 HD
ATOM    203  C3'  DT A   8      85.179 108.622 223.187  1.00  0.00     0.198 C 
ATOM    204  O3'  DT A   8      84.724 109.919 223.567  1.00  0.00    -0.279 OA
ATOM    205  P    DA A   9      84.651 111.099 222.473  1.00  0.00     0.408 P 
ATOM    206  OP1  DA A   9      85.737 110.868 221.488  1.00  0.00    -0.624 OA
ATOM    207  OP2  DA A   9      84.594 112.388 223.208  1.00  0.00    -0.624 OA
ATOM    208  O5'  DA A   9      83.244 110.879 221.758  1.00  0.00    -0.287 OA
ATOM    209  C5'  DA A   9      83.116 110.040 220.609  1.00  0.00     0.216 C 
ATOM    210  C4'  DA A   9      83.455 110.814 219.356  1.00  0.00     0.180 C 
ATOM    211  O4'  DA A   9      84.855 110.576 219.041  1.00  0.00    -0.353 OA
ATOM    212  C1'  DA A   9      84.996 110.278 217.667  1.00  0.00     0.262 C 
ATOM    213  N9   DA A   9      85.362 108.866 217.541  1.00  0.00    -0.294 N 
ATOM    214  C4   DA A   9      84.523 107.820 217.234  1.00  0.00     0.167 A 
ATOM    215  N3   DA A   9      83.204 107.876 216.990  1.00  0.00    -0.222 NA
ATOM    216  C2   DA A   9      82.722 106.665 216.727  1.00  0.00     0.237 A 
ATOM    217  N1   DA A   9      83.362 105.491 216.680  1.00  0.00    -0.222 NA
ATOM    218  C6   DA A   9      84.688 105.469 216.928  1.00  0.00     0.155 A 
ATOM    219  N6   DA A   9      85.323 104.299 216.878  1.00  0.00    -0.382 N 
ATOM    220  H61  DA A   9      86.317 104.253 217.059  1.00  0.00     0.157 HD
ATOM    221  H62  DA A   9      84.805 103.463 216.651  1.00  0.00     0.157 HD
ATOM    222  C5   DA A   9      85.319 106.690 217.225  1.00  0.00     0.149 A 
ATOM    223  N7   DA A   9      86.636 107.013 217.523  1.00  0.00    -0.236 NA
ATOM    224  C8   DA A   9      86.607 108.311 217.704  1.00  0.00     0.214 A 
ATOM    225  C2'  DA A   9      83.682 110.654 216.985  1.00  0.00     0.199 C 
ATOM    226  O2'  DA A   9      83.736 112.024 216.636  1.00  0.00    -0.388 OA
ATOM    227 2'HO  DA A   9      82.863 112.275 216.335  1.00  0.00     0.210 HD
ATOM    228  C3'  DA A   9      82.681 110.403 218.107  1.00  0.00     0.198 C 
ATOM    229  O3'  DA A   9      81.491 111.173 217.949  1.00  0.00    -0.279 OA
ATOM    230  P    DG A  10      80.268 110.593 217.077  1.00  0.00     0.408 P 
ATOM    231  OP1  DG A  10      80.660 109.260 216.551  1.00  0.00    -0.624 OA
ATOM    232  OP2  DG A  10      79.025 110.728 217.879  1.00  0.00    -0.624 OA
ATOM    233  O5'  DG A  10      80.167 111.591 215.837  1.00  0.00    -0.287 OA
ATOM    234  C5'  DG A  10      79.917 112.984 216.028  1.00  0.00     0.216 C 
ATOM    235  C4'  DG A  10      80.891 113.807 215.215  1.00  0.00     0.180 C 
ATOM    236  O4'  DG A  10      81.993 112.961 214.789  1.00  0.00    -0.353 OA
ATOM    237  C1'  DG A  10      82.391 113.315 213.476  1.00  0.00     0.262 C 
ATOM    238  N9   DG A  10      82.170 112.166 212.602  1.00  0.00    -0.293 N 
ATOM    239  C4   DG A  10      82.495 112.082 211.269  1.00  0.00     0.187 A 
ATOM    240  N3   DG A  10      83.075 113.052 210.532  1.00  0.00    -0.044 NA
ATOM    241  C2   DG A  10      83.262 112.674 209.281  1.00  0.00     0.703 A 
ATOM    242  N2   DG A  10      83.826 113.517 208.411  1.00  0.00    -0.233 N 
ATOM    243  H21  DG A  10      84.101 114.437 208.723  1.00  0.00     0.174 HD
ATOM    244  H22  DG A  10      83.981 113.237 207.452  1.00  0.00     0.174 HD
ATOM    245  N1   DG A  10      82.912 111.444 208.788  1.00  0.00    -0.153 N 
ATOM    246  H1   DG A  10      83.102 111.255 207.817  1.00  0.00     0.187 HD
ATOM    247  C6   DG A  10      82.313 110.429 209.526  1.00  0.00     0.292 A 
ATOM    248  O6   DG A  10      82.035 109.356 208.979  1.00  0.00    -0.265 OA
ATOM    249  C5   DG A  10      82.104 110.820 210.876  1.00  0.00     0.173 A 
ATOM    250  N7   DG A  10      81.542 110.123 211.939  1.00  0.00    -0.234 NA
ATOM    251  C8   DG A  10      81.603 110.961 212.938  1.00  0.00     0.214 A 
ATOM    252  C2'  DG A  10      81.592 114.553 213.071  1.00  0.00     0.199 C 
ATOM    253  O2'  DG A  10      82.318 115.707 213.453  1.00  0.00    -0.388 OA
ATOM    254 2'HO  DG A  10      81.763 116.196 214.061  1.00  0.00     0.210 HD
ATOM    255  C3'  DG A  10      80.337 114.387 213.920  1.00  0.00     0.198 C 
ATOM    256  O3'  DG A  10      79.667 115.627 214.145  1.00  0.00    -0.279 OA
ATOM    257  P    DC A  11      78.309 115.961 213.348  1.00  0.00     0.408 P 
ATOM    258  OP1  DC A  11      77.725 117.177 213.967  1.00  0.00    -0.624 OA
ATOM    259  OP2  DC A  11      77.498 114.719 213.262  1.00  0.00    -0.624 OA
ATOM    260  O5'  DC A  11      78.802 116.335 211.879  1.00  0.00    -0.287 OA
ATOM    261  C5'  DC A  11      79.547 117.527 211.634  1.00  0.00     0.216 C 
ATOM    262  C4'  DC A  11      79.777 117.704 210.150  1.00  0.00     0.180 C 
ATOM    263  O4'  DC A  11      80.788 116.751 209.720  1.00  0.00    -0.353 OA
ATOM    264  C1'  DC A  11      80.397 116.157 208.495  1.00  0.00     0.264 C 
ATOM    265  N1   DC A  11      80.087 114.739 208.740  1.00  0.00    -0.278 N 
ATOM    266  C6   DC A  11      79.798 114.294 210.000  1.00  0.00     0.102 A 
ATOM    267  C2   DC A  11      80.096 113.851 207.663  1.00  0.00     0.352 A 
ATOM    268  O2   DC A  11      80.354 114.280 206.530  1.00  0.00    -0.244 OA
ATOM    269  N3   DC A  11      79.821 112.545 207.882  1.00  0.00    -0.177 NA
ATOM    270  C4   DC A  11      79.545 112.120 209.115  1.00  0.00     0.128 A 
ATOM    271  N4   DC A  11      79.284 110.824 209.281  1.00  0.00    -0.384 N 
ATOM    272  H41  DC A  11      79.071 110.460 210.199  1.00  0.00     0.157 HD
ATOM    273  H42  DC A  11      79.305 110.203 208.484  1.00  0.00     0.157 HD
ATOM    274  C5   DC A  11      79.525 113.004 210.231  1.00  0.00     0.067 A 
ATOM    275  C2'  DC A  11      79.214 116.962 207.961  1.00  0.00     0.199 C 
ATOM    276  O2'  DC A  11      79.713 118.056 207.214  1.00  0.00    -0.388 OA
ATOM    277 2'HO  DC A  11      79.308 118.846 207.575  1.00  0.00     0.210 HD
ATOM    278  C3'  DC A  11      78.569 117.428 209.261  1.00  0.00     0.198 C 
ATOM    279  O3'  DC A  11      77.770 118.592 209.079  1.00  0.00    -0.279 OA
ATOM    280  P    DT A  12      76.233 118.444 208.625  1.00  0.00     0.408 P 
ATOM    281  OP1  DT A  12      75.659 119.811 208.549  1.00  0.00    -0.624 OA
ATOM    282  OP2  DT A  12      75.586 117.422 209.487  1.00  0.00    -0.624 OA
ATOM    283  O5'  DT A  12      76.320 117.856 207.145  1.00  0.00    -0.287 OA
ATOM    284  C5'  DT A  12      76.880 118.624 206.080  1.00  0.00     0.216 C 
ATOM    285  C4'  DT A  12      76.567 117.978 204.750  1.00  0.00     0.180 C 
ATOM    286  O4'  DT A  12      77.469 116.856 204.548  1.00  0.00    -0.353 OA
ATOM    287  C1'  DT A  12      76.771 115.779 203.947  1.00  0.00     0.264 C 
ATOM    288  N1   DT A  12      76.759 114.652 204.890  1.00  0.00    -0.280 N 
ATOM    289  C6   DT A  12      76.703 114.860 206.249  1.00  0.00     0.104 A 
ATOM    290  C2   DT A  12      76.808 113.372 204.368  1.00  0.00     0.331 A 
ATOM    291  O2   DT A  12      76.861 113.145 203.173  1.00  0.00    -0.246 OA
ATOM    292  N3   DT A  12      76.792 112.366 205.298  1.00  0.00    -0.275 N 
ATOM    293  H3   DT A  12      76.820 111.424 204.935  1.00  0.00     0.173 HD
ATOM    294  C4   DT A  12      76.738 112.503 206.666  1.00  0.00     0.250 A 
ATOM    295  O4   DT A  12      76.730 111.497 207.375  1.00  0.00    -0.268 OA
ATOM    296  C5   DT A  12      76.693 113.855 207.127  1.00  0.00     0.092 A 
ATOM    297  C2'  DT A  12      75.377 116.287 203.579  1.00  0.00     0.199 C 
ATOM    298  O2'  DT A  12      75.424 116.831 202.273  1.00  0.00    -0.388 OA
ATOM    299 2'HO  DT A  12      74.716 117.473 202.215  1.00  0.00     0.210 HD
ATOM    300  C3'  DT A  12      75.173 117.375 204.626  1.00  0.00     0.198 C 
ATOM    301  O3'  DT A  12      74.214 118.348 204.223  1.00  0.00    -0.279 OA
ATOM    302  P    DC A  13      72.648 118.074 204.464  1.00  0.00     0.408 P 
ATOM    303  OP1  DC A  13      71.923 119.313 204.084  1.00  0.00    -0.624 OA
ATOM    304  OP2  DC A  13      72.477 117.513 205.830  1.00  0.00    -0.624 OA
ATOM    305  O5'  DC A  13      72.288 116.945 203.398  1.00  0.00    -0.287 OA
ATOM    306  C5'  DC A  13      71.738 115.692 203.803  1.00  0.00     0.216 C 
ATOM    307  C4'  DC A  13      72.249 114.586 202.910  1.00  0.00     0.180 C 
ATOM    308  O4'  DC A  13      73.506 114.093 203.450  1.00  0.00    -0.353 OA
ATOM    309  C1'  DC A  13      73.540 112.678 203.375  1.00  0.00     0.264 C 
ATOM    310  N1   DC A  13      73.529 112.138 204.746  1.00  0.00    -0.278 N 
ATOM    311  C6   DC A  13      73.421 112.969 205.825  1.00  0.00     0.102 A 
ATOM    312  C2   DC A  13      73.626 110.754 204.928  1.00  0.00     0.352 A 
ATOM    313  O2   DC A  13      73.728 110.021 203.933  1.00  0.00    -0.244 OA
ATOM    314  N3   DC A  13      73.608 110.251 206.180  1.00  0.00    -0.177 NA
ATOM    315  C4   DC A  13      73.501 111.071 207.227  1.00  0.00     0.128 A 
ATOM    316  C5   DC A  13      73.403 112.484 207.073  1.00  0.00     0.067 A 
ATOM    317  C2'  DC A  13      72.346 112.239 202.529  1.00  0.00     0.199 C 
ATOM    318  C3'  DC A  13      71.352 113.358 202.819  1.00  0.00     0.198 C 
ENDROOT
BRANCH 318 319
ATOM    319  O3'  DC A  13      70.377 113.496 201.790  1.00  0.00    -0.279 OA
BRANCH 319 320
ATOM    320  P    DA A  14      68.996 112.677 201.884  1.00  0.00     0.408 P 
ATOM    321  OP2  DA A  14      68.486 112.791 203.274  1.00  0.00    -0.624 OA
ATOM    322  OP1  DA A  14      68.142 113.121 200.751  1.00  0.00    -0.624 OA
BRANCH 320 323
ATOM    323  O5'  DA A  14      69.428 111.163 201.635  1.00  0.00    -0.287 OA
BRANCH 323 324
ATOM    324  C5'  DA A  14      68.657 110.079 202.150  1.00  0.00     0.216 C 
BRANCH 324 325
ATOM    325  C4'  DA A  14      69.566 109.025 202.739  1.00  0.00     0.180 C 
ATOM    326  C3'  DA A  14      68.860 107.928 203.526  1.00  0.00     0.198 C 
ATOM    327  C2'  DA A  14      69.926 107.497 204.523  1.00  0.00     0.199 C 
ATOM    328  C1'  DA A  14      70.581 108.838 204.849  1.00  0.00     0.262 C 
ATOM    329  O4'  DA A  14      70.457 109.656 203.700  1.00  0.00    -0.353 OA
BRANCH 326 330
ATOM    330  O3'  DA A  14      68.444 106.858 202.682  1.00  0.00    -0.279 OA
BRANCH 330 331
ATOM    331  P    DG A  15      69.473 106.240 201.609  1.00  0.00     0.408 P 
ATOM    332  OP2  DG A  15      70.483 107.278 201.281  1.00  0.00    -0.624 OA
ATOM    333  OP1  DG A  15      69.918 104.924 202.134  1.00  0.00    -0.624 OA
BRANCH 331 334
ATOM    334  O5'  DG A  15      68.578 105.987 200.314  1.00  0.00    -0.287 OA
BRANCH 334 335
ATOM    335  C5'  DG A  15      68.291 104.663 199.864  1.00  0.00     0.216 C 
BRANCH 335 336
ATOM    336  C4'  DG A  15      69.230 104.276 198.743  1.00  0.00     0.180 C 
ATOM    337  C3'  DG A  15      68.680 103.272 197.738  1.00  0.00     0.198 C 
ATOM    338  C2'  DG A  15      69.960 102.660 197.177  1.00  0.00     0.199 C 
ATOM    339  C1'  DG A  15      70.788 102.539 198.454  1.00  0.00     0.262 C 
ATOM    340  O4'  DG A  15      70.392 103.604 199.306  1.00  0.00    -0.353 OA
BRANCH 337 341
ATOM    341  O3'  DG A  15      67.799 103.882 196.778  1.00  0.00    -0.279 OA
BRANCH 341 342
ATOM    342  P    DT A  16      67.007 102.990 195.690  1.00  0.00     0.408 P 
ATOM    343  OP2  DT A  16      66.686 101.696 196.344  1.00  0.00    -0.624 OA
ATOM    344  OP1  DT A  16      65.908 103.802 195.108  1.00  0.00    -0.624 OA
BRANCH 342 345
ATOM    345  O5'  DT A  16      68.091 102.708 194.555  1.00  0.00    -0.287 OA
BRANCH 345 346
ATOM    346  C5'  DT A  16      68.290 101.397 194.029  1.00  0.00     0.216 C 
BRANCH 346 347
ATOM    347  C4'  DT A  16      69.626 100.851 194.480  1.00  0.00     0.180 C 
ATOM    348  C3'  DT A  16      70.430 100.122 193.412  1.00  0.00     0.198 C 
ATOM    349  C2'  DT A  16      71.303  99.184 194.238  1.00  0.00     0.199 C 
ATOM    350  C1'  DT A  16      70.349  98.807 195.374  1.00  0.00     0.264 C 
ATOM    351  O4'  DT A  16      69.401  99.850 195.507  1.00  0.00    -0.353 OA
BRANCH 348 352
ATOM    352  O3'  DT A  16      71.206 101.023 192.624  1.00  0.00    -0.279 OA
BRANCH 352 353
ATOM    353  P    DT A  17      71.008 101.068 191.027  1.00  0.00     0.408 P 
ATOM    354  OP2  DT A  17      69.733 100.390 190.681  1.00  0.00    -0.624 OA
ATOM    355  OP1  DT A  17      71.226 102.474 190.602  1.00  0.00    -0.624 OA
BRANCH 353 356
ATOM    356  O5'  DT A  17      72.218 100.198 190.455  1.00  0.00    -0.287 OA
BRANCH 356 357
ATOM    357  C5'  DT A  17      73.263  99.723 191.307  1.00  0.00     0.216 C 
BRANCH 357 358
ATOM    358  C4'  DT A  17      74.582  99.712 190.566  1.00  0.00     0.180 C 
ATOM    359  C3'  DT A  17      75.797  99.334 191.408  1.00  0.00     0.198 C 
ATOM    360  C2'  DT A  17      76.302 100.685 191.902  1.00  0.00     0.199 C 
ATOM    361  C1'  DT A  17      76.020 101.565 190.688  1.00  0.00     0.264 C 
ATOM    362  O4'  DT A  17      74.852 101.055 190.075  1.00  0.00    -0.353 OA
BRANCH 359 363
ATOM    363  O3'  DT A  17      76.764  98.635 190.625  1.00  0.00    -0.279 OA
BRANCH 363 364
ATOM    364  P    DG A  18      77.697  97.518 191.310  1.00  0.00     0.408 P 
ATOM    365  OP2  DG A  18      77.340  96.198 190.729  1.00  0.00    -0.624 OA
ATOM    366  OP1  DG A  18      79.104  97.993 191.245  1.00  0.00    -0.624 OA
BRANCH 364 367
ATOM    367  O5'  DG A  18      77.247  97.530 192.839  1.00  0.00    -0.287 OA
BRANCH 367 368
ATOM    368  C5'  DG A  18      76.975  96.314 193.535  1.00  0.00     0.216 C 
BRANCH 368 369
ATOM    369  C4'  DG A  18      75.804  96.503 194.471  1.00  0.00     0.180 C 
ATOM    370  O4'  DG A  18      74.634  96.853 193.682  1.00  0.00    -0.353 OA
ATOM    371  C1'  DG A  18      73.712  95.780 193.686  1.00  0.00     0.262 C 
ATOM    372  C2'  DG A  18      74.411  94.577 194.315  1.00  0.00     0.199 C 
ATOM    373  C3'  DG A  18      75.392  95.264 195.259  1.00  0.00     0.198 C 
BRANCH 371 374
ATOM    374  N9   DG A  18      73.268  95.554 192.314  1.00  0.00    -0.293 N 
ATOM    375  C4   DG A  18      72.220  94.760 191.913  1.00  0.00     0.187 A 
ATOM    376  C5   DG A  18      72.190  94.861 190.539  1.00  0.00     0.173 A 
ATOM    377  N3   DG A  18      71.413  94.045 192.723  1.00  0.00    -0.044 NA
ATOM    378  C6   DG A  18      71.199  94.141 189.822  1.00  0.00     0.292 A 
ATOM    379  N7   DG A  18      73.198  95.702 190.084  1.00  0.00    -0.234 NA
ATOM    380  N1   DG A  18      70.379  93.413 190.677  1.00  0.00    -0.153 N 
ATOM    381  O6   DG A  18      71.005  94.098 188.603  1.00  0.00    -0.265 OA
ATOM    382  C2   DG A  18      70.496  93.380 192.043  1.00  0.00     0.703 A 
ATOM    383  H1   DG A  18      69.644  92.868 190.254  1.00  0.00     0.187 HD
ATOM    384  C8   DG A  18      73.808  96.089 191.170  1.00  0.00     0.214 A 
BRANCH 382 385
ATOM    385  N2   DG A  18      69.613  92.619 192.693  1.00  0.00    -0.233 N 
ATOM    386  H21  DG A  18      69.710  91.615 192.659  1.00  0.00     0.174 HD
ATOM    387  H22  DG A  18      68.857  93.042 193.212  1.00  0.00     0.174 HD
ENDBRANCH 382 385
ENDBRANCH 371 374
BRANCH 372 388
ATOM    388  O2'  DG A  18      73.455  93.819 195.032  1.00  0.00    -0.388 OA
ATOM    389 2'HO  DG A  18      72.609  93.964 194.604  1.00  0.00     0.210 HD
ENDBRANCH 372 388
BRANCH 373 390
ATOM    390  O3'  DG A  18      74.790  95.610 196.506  1.00  0.00    -0.279 OA
BRANCH 390 391
ATOM    391  P    DG A  19      75.586  95.347 197.878  1.00  0.00     0.408 P 
ATOM    392  OP1  DG A  19      75.999  93.920 197.880  1.00  0.00    -0.624 OA
ATOM    393  OP2  DG A  19      74.773  95.874 199.004  1.00  0.00    -0.624 OA
BRANCH 391 394
ATOM    394  O5'  DG A  19      76.906  96.232 197.738  1.00  0.00    -0.287 OA
BRANCH 394 395
ATOM    395  C5'  DG A  19      77.464  96.914 198.861  1.00  0.00     0.216 C 
BRANCH 395 396
ATOM    396  C4'  DG A  19      77.300  98.407 198.696  1.00  0.00     0.180 C 
ATOM    397  O4'  DG A  19      75.961  98.774 199.136  1.00  0.00    -0.353 OA
ATOM    398  C1'  DG A  19      76.044  99.699 200.201  1.00  0.00     0.262 C 
ATOM    399  C2'  DG A  19      77.449  99.568 200.782  1.00  0.00     0.199 C 
ATOM    400  C3'  DG A  19      78.258  99.259 199.526  1.00  0.00     0.198 C 
BRANCH 398 401
ATOM    401  N9   DG A  19      74.971  99.405 201.145  1.00  0.00    -0.293 N 
ATOM    402  C4   DG A  19      73.998 100.278 201.573  1.00  0.00     0.187 A 
ATOM    403  N3   DG A  19      73.868 101.567 201.196  1.00  0.00    -0.044 NA
ATOM    404  C5   DG A  19      73.215  99.553 202.448  1.00  0.00     0.173 A 
ATOM    405  C2   DG A  19      72.835 102.148 201.777  1.00  0.00     0.703 A 
ATOM    406  N1   DG A  19      71.994 101.519 202.659  1.00  0.00    -0.153 N 
ATOM    407  H1   DG A  19      71.233 102.051 203.047  1.00  0.00     0.187 HD
ATOM    408  C6   DG A  19      72.108 100.194 203.064  1.00  0.00     0.292 A 
ATOM    409  O6   DG A  19      71.294  99.725 203.868  1.00  0.00    -0.265 OA
ATOM    410  N7   DG A  19      73.686  98.252 202.569  1.00  0.00    -0.234 NA
ATOM    411  C8   DG A  19      74.725  98.212 201.781  1.00  0.00     0.214 A 
BRANCH 405 412
ATOM    412  N2   DG A  19      72.560 103.428 201.514  1.00  0.00    -0.233 N 
ATOM    413  H21  DG A  19      71.762 103.649 200.936  1.00  0.00     0.174 HD
ATOM    414  H22  DG A  19      73.140 104.165 201.885  1.00  0.00     0.174 HD
ENDBRANCH 405 412
ENDBRANCH 398 401
BRANCH 399 415
ATOM    415  O2'  DG A  19      77.829 100.813 201.338  1.00  0.00    -0.388 OA
ATOM    416 2'HO  DG A  19      78.428 100.616 202.059  1.00  0.00     0.210 HD
ENDBRANCH 399 415
BRANCH 400 417
ATOM    417  O3'  DG A  19      78.641 100.442 198.829  1.00  0.00    -0.279 OA
BRANCH 417 418
ATOM    418  P    DG A  20      80.172 100.936 198.869  1.00  0.00     0.408 P 
ATOM    419  OP2  DG A  20      80.467 101.441 200.233  1.00  0.00    -0.624 OA
ATOM    420  OP1  DG A  20      80.999  99.842 198.296  1.00  0.00    -0.624 OA
BRANCH 418 421
ATOM    421  O5'  DG A  20      80.208 102.168 197.859  1.00  0.00    -0.287 OA
BRANCH 421 422
ATOM    422  C5'  DG A  20      80.340 103.506 198.336  1.00  0.00     0.216 C 
BRANCH 422 423
ATOM    423  C4'  DG A  20      79.635 104.465 197.404  1.00  0.00     0.180 C 
ATOM    424  C3'  DG A  20      78.296 103.982 196.857  1.00  0.00     0.198 C 
ATOM    425  C2'  DG A  20      78.204 104.705 195.519  1.00  0.00     0.199 C 
ATOM    426  C1'  DG A  20      79.661 104.660 195.063  1.00  0.00     0.262 C 
ATOM    427  O4'  DG A  20      80.467 104.670 196.228  1.00  0.00    -0.353 OA
BRANCH 424 428
ATOM    428  O3'  DG A  20      77.219 104.315 197.727  1.00  0.00    -0.279 OA
BRANCH 428 429
ATOM    429  P    DA A  21      76.303 103.147 198.349  1.00  0.00     0.408 P 
ATOM    430  OP2  DA A  21      76.261 102.023 197.381  1.00  0.00    -0.624 OA
ATOM    431  OP1  DA A  21      76.785 102.904 199.734  1.00  0.00    -0.624 OA
BRANCH 429 432
ATOM    432  O5'  DA A  21      74.851 103.796 198.444  1.00  0.00    -0.287 OA
BRANCH 432 433
ATOM    433  C5'  DA A  21      73.925 103.700 197.360  1.00  0.00     0.216 C 
BRANCH 433 434
ATOM    434  C4'  DA A  21      74.269 104.712 196.291  1.00  0.00     0.180 C 
ATOM    435  O4'  DA A  21      73.323 104.574 195.197  1.00  0.00    -0.353 OA
ATOM    436  C1'  DA A  21      73.019 105.849 194.663  1.00  0.00     0.262 C 
ATOM    437  C2'  DA A  21      73.878 106.883 195.393  1.00  0.00     0.199 C 
ATOM    438  C3'  DA A  21      74.158 106.171 196.713  1.00  0.00     0.198 C 
BRANCH 436 439
ATOM    439  N9   DA A  21      71.583 106.080 194.810  1.00  0.00    -0.294 N 
ATOM    440  C8   DA A  21      70.913 106.550 195.912  1.00  0.00     0.214 A 
ATOM    441  N7   DA A  21      69.618 106.659 195.736  1.00  0.00    -0.236 NA
ATOM    442  C5   DA A  21      69.422 106.230 194.431  1.00  0.00     0.149 A 
ATOM    443  C6   DA A  21      68.267 106.105 193.638  1.00  0.00     0.155 A 
ATOM    444  C4   DA A  21      70.623 105.868 193.850  1.00  0.00     0.167 A 
ATOM    445  N1   DA A  21      68.417 105.645 192.378  1.00  0.00    -0.222 NA
ATOM    446  C2   DA A  21      69.647 105.333 191.951  1.00  0.00     0.237 A 
ATOM    447  N3   DA A  21      70.808 105.406 192.600  1.00  0.00    -0.222 NA
BRANCH 443 448
ATOM    448  N6   DA A  21      67.042 106.416 194.060  1.00  0.00    -0.382 N 
ATOM    449  H61  DA A  21      66.923 106.962 194.901  1.00  0.00     0.157 HD
ATOM    450  H62  DA A  21      66.239 106.106 193.533  1.00  0.00     0.157 HD
ENDBRANCH 443 448
ENDBRANCH 436 439
BRANCH 437 451
ATOM    451  O2'  DA A  21      75.070 107.078 194.657  1.00  0.00    -0.388 OA
ATOM    452 2'HO  DA A  21      74.881 106.805 193.757  1.00  0.00     0.210 HD
ENDBRANCH 437 451
BRANCH 438 453
ATOM    453  O3'  DA A  21      75.360 106.629 197.328  1.00  0.00    -0.279 OA
BRANCH 453 454
ATOM    454  P    DG A  22      75.401 108.078 198.027  1.00  0.00     0.408 P 
ATOM    455  OP2  DG A  22      75.653 109.102 196.980  1.00  0.00    -0.624 OA
ATOM    456  OP1  DG A  22      74.191 108.185 198.881  1.00  0.00    -0.624 OA
BRANCH 454 457
ATOM    457  O5'  DG A  22      76.674 108.007 198.985  1.00  0.00    -0.287 OA
BRANCH 457 458
ATOM    458  C5'  DG A  22      77.917 107.477 198.526  1.00  0.00     0.216 C 
BRANCH 458 459
ATOM    459  C4'  DG A  22      79.041 107.949 199.418  1.00  0.00     0.180 C 
ATOM    460  O4'  DG A  22      79.695 109.087 198.783  1.00  0.00    -0.353 OA
ATOM    461  C1'  DG A  22      79.914 110.107 199.741  1.00  0.00     0.262 C 
ATOM    462  C2'  DG A  22      79.722 109.462 201.111  1.00  0.00     0.199 C 
ATOM    463  C3'  DG A  22      78.626 108.456 200.794  1.00  0.00     0.198 C 
BRANCH 461 464
ATOM    464  N9   DG A  22      78.985 111.202 199.472  1.00  0.00    -0.293 N 
ATOM    465  C8   DG A  22      77.911 111.583 200.237  1.00  0.00     0.214 A 
ATOM    466  N7   DG A  22      77.265 112.605 199.746  1.00  0.00    -0.234 NA
ATOM    467  C5   DG A  22      77.955 112.918 198.582  1.00  0.00     0.173 A 
ATOM    468  C4   DG A  22      79.020 112.061 198.398  1.00  0.00     0.187 A 
ATOM    469  C6   DG A  22      77.723 113.935 197.620  1.00  0.00     0.292 A 
ATOM    470  N3   DG A  22      79.920 112.040 197.393  1.00  0.00    -0.044 NA
ATOM    471  C2   DG A  22      79.691 112.993 196.507  1.00  0.00     0.703 A 
ATOM    472  N1   DG A  22      78.662 113.894 196.596  1.00  0.00    -0.153 N 
ATOM    473  H1   DG A  22      78.575 114.581 195.863  1.00  0.00     0.187 HD
ATOM    474  O6   DG A  22      76.835 114.795 197.605  1.00  0.00    -0.265 OA
BRANCH 471 475
ATOM    475  N2   DG A  22      80.489 113.118 195.443  1.00  0.00    -0.233 N 
ATOM    476  H21  DG A  22      81.491 113.130 195.573  1.00  0.00     0.174 HD
ATOM    477  H22  DG A  22      80.095 113.196 194.516  1.00  0.00     0.174 HD
ENDBRANCH 471 475
ENDBRANCH 461 464
BRANCH 462 478
ATOM    478  O2'  DG A  22      80.924 108.811 201.480  1.00  0.00    -0.388 OA
ATOM    479 2'HO  DG A  22      81.625 109.457 201.386  1.00  0.00     0.210 HD
ENDBRANCH 462 478
BRANCH 463 480
ATOM    480  O3'  DG A  22      78.561 107.399 201.750  1.00  0.00    -0.279 OA
BRANCH 480 481
ATOM    481  P    DA A  23      77.132 106.898 202.292  1.00  0.00     0.408 P 
ATOM    482  OP2  DA A  23      76.276 108.084 202.543  1.00  0.00    -0.624 OA
ATOM    483  OP1  DA A  23      76.658 105.834 201.372  1.00  0.00    -0.624 OA
BRANCH 481 484
ATOM    484  O5'  DA A  23      77.466 106.223 203.697  1.00  0.00    -0.287 OA
BRANCH 484 485
ATOM    485  C5'  DA A  23      78.814 106.074 204.140  1.00  0.00     0.216 C 
BRANCH 485 486
ATOM    486  C4'  DA A  23      79.209 107.242 205.014  1.00  0.00     0.180 C 
ATOM    487  O4'  DA A  23      78.006 107.926 205.464  1.00  0.00    -0.353 OA
ATOM    488  C1'  DA A  23      78.147 108.295 206.825  1.00  0.00     0.262 C 
ATOM    489  C2'  DA A  23      79.610 108.064 207.197  1.00  0.00     0.199 C 
ATOM    490  C3'  DA A  23      79.946 106.883 206.297  1.00  0.00     0.198 C 
BRANCH 488 491
ATOM    491  N9   DA A  23      77.205 107.503 207.618  1.00  0.00    -0.294 N 
ATOM    492  C8   DA A  23      77.377 107.028 208.894  1.00  0.00     0.214 A 
ATOM    493  N7   DA A  23      76.355 106.341 209.346  1.00  0.00    -0.236 NA
ATOM    494  C5   DA A  23      75.447 106.368 208.296  1.00  0.00     0.149 A 
ATOM    495  C6   DA A  23      74.162 105.821 208.144  1.00  0.00     0.155 A 
ATOM    496  C4   DA A  23      75.957 107.081 207.226  1.00  0.00     0.167 A 
ATOM    497  N1   DA A  23      73.523 106.031 206.973  1.00  0.00    -0.222 NA
ATOM    498  C2   DA A  23      74.145 106.745 206.025  1.00  0.00     0.237 A 
ATOM    499  N3   DA A  23      75.351 107.309 206.049  1.00  0.00    -0.222 NA
BRANCH 495 500
ATOM    500  N6   DA A  23      73.545 105.110 209.088  1.00  0.00    -0.382 N 
ATOM    501  H62  DA A  23      73.467 105.471 210.029  1.00  0.00     0.157 HD
ATOM    502  H61  DA A  23      73.158 104.206 208.860  1.00  0.00     0.157 HD
ENDBRANCH 495 500
ENDBRANCH 488 491
BRANCH 489 503
ATOM    503  O2'  DA A  23      80.356 109.213 206.841  1.00  0.00    -0.388 OA
ATOM    504 2'HO  DA A  23      80.694 109.585 207.655  1.00  0.00     0.210 HD
ENDBRANCH 489 503
BRANCH 490 505
ATOM    505  O3'  DA A  23      81.347 106.738 206.081  1.00  0.00    -0.279 OA
BRANCH 505 506
ATOM    506  P    DG A  24      82.117 107.767 205.113  1.00  0.00     0.408 P 
ATOM    507  OP1  DG A  24      83.110 108.494 205.944  1.00  0.00    -0.624 OA
ATOM    508  OP2  DG A  24      81.112 108.534 204.333  1.00  0.00    -0.624 OA
BRANCH 506 509
ATOM    509  O5'  DG A  24      82.912 106.822 204.105  1.00  0.00    -0.287 OA
BRANCH 509 510
ATOM    510  C5'  DG A  24      83.781 107.370 203.115  1.00  0.00     0.216 C 
BRANCH 510 511
ATOM    511  C4'  DG A  24      83.898 106.423 201.944  1.00  0.00     0.180 C 
ATOM    512  O4'  DG A  24      82.874 106.750 200.969  1.00  0.00    -0.353 OA
ATOM    513  C1'  DG A  24      83.381 106.555 199.660  1.00  0.00     0.262 C 
ATOM    514  C2'  DG A  24      84.807 106.013 199.782  1.00  0.00     0.199 C 
ATOM    515  C3'  DG A  24      85.203 106.509 201.169  1.00  0.00     0.198 C 
BRANCH 513 516
ATOM    516  N9   DG A  24      83.297 107.823 198.942  1.00  0.00    -0.293 N 
ATOM    517  C4   DG A  24      83.031 107.986 197.604  1.00  0.00     0.187 A 
ATOM    518  N3   DG A  24      82.808 106.999 196.713  1.00  0.00    -0.044 NA
ATOM    519  C5   DG A  24      83.044 109.349 197.392  1.00  0.00     0.173 A 
ATOM    520  C2   DG A  24      82.582 107.470 195.501  1.00  0.00     0.703 A 
ATOM    521  N1   DG A  24      82.574 108.804 195.185  1.00  0.00    -0.153 N 
ATOM    522  H1   DG A  24      82.392 109.059 194.226  1.00  0.00     0.187 HD
ATOM    523  C6   DG A  24      82.799 109.839 196.084  1.00  0.00     0.292 A 
ATOM    524  O6   DG A  24      82.767 111.011 195.692  1.00  0.00    -0.265 OA
ATOM    525  N7   DG A  24      83.317 110.029 198.572  1.00  0.00    -0.234 NA
ATOM    526  C8   DG A  24      83.462 109.084 199.460  1.00  0.00     0.214 A 
BRANCH 520 527
ATOM    527  N2   DG A  24      82.342 106.625 194.495  1.00  0.00    -0.233 N 
ATOM    528  H21  DG A  24      82.850 105.755 194.452  1.00  0.00     0.174 HD
ATOM    529  H22  DG A  24      81.665 106.854 193.780  1.00  0.00     0.174 HD
ENDBRANCH 520 527
ENDBRANCH 513 516
BRANCH 514 530
ATOM    530  O2'  DG A  24      84.759 104.599 199.742  1.00  0.00    -0.388 OA
ATOM    531 2'HO  DG A  24      85.347 104.326 199.037  1.00  0.00     0.210 HD
ENDBRANCH 514 530
BRANCH 515 532
ATOM    532  O3'  DG A  24      86.213 105.701 201.766  1.00  0.00    -0.279 OA
BRANCH 532 533
ATOM    533  P    DC A  25      85.819 104.646 202.912  1.00  0.00     0.408 P 
ATOM    534  OP2  DC A  25      85.924 105.329 204.227  1.00  0.00    -0.624 OA
ATOM    535  OP1  DC A  25      84.531 104.026 202.508  1.00  0.00    -0.624 OA
BRANCH 533 536
ATOM    536  O5'  DC A  25      86.963 103.541 202.826  1.00  0.00    -0.287 OA
BRANCH 536 537
ATOM    537  C5'  DC A  25      88.336 103.884 203.015  1.00  0.00     0.216 C 
BRANCH 537 538
ATOM    538  C4'  DC A  25      88.788 103.477 204.399  1.00  0.00     0.180 C 
ATOM    539  O4'  DC A  25      87.649 102.933 205.116  1.00  0.00    -0.353 OA
ATOM    540  C1'  DC A  25      88.063 101.845 205.921  1.00  0.00     0.264 C 
ATOM    541  C2'  DC A  25      89.581 101.712 205.795  1.00  0.00     0.199 C 
ATOM    542  C3'  DC A  25      89.842 102.378 204.447  1.00  0.00     0.198 C 
ATOM    543  O2'  DC A  25      90.188 102.439 206.846  1.00  0.00    -0.388 OA
ATOM    544  O3'  DC A  25      91.163 102.911 204.373  1.00  0.00    -0.279 OA
ATOM    545  P    DG A  26      91.817 103.250 202.942  1.00  0.00     0.408 P 
ATOM    546  OP1  DG A  26      92.243 104.672 202.985  1.00  0.00    -0.624 OA
ATOM    547  OP2  DG A  26      90.909 102.791 201.862  1.00  0.00    -0.624 OA
ATOM    548  O5'  DG A  26      93.132 102.350 202.893  1.00  0.00    -0.287 OA
ATOM    549  C5'  DG A  26      93.880 102.070 204.075  1.00  0.00     0.216 C 
ATOM    550  C4'  DG A  26      94.120 100.582 204.197  1.00  0.00     0.180 C 
ATOM    551  O4'  DG A  26      92.853  99.934 204.500  1.00  0.00    -0.353 OA
ATOM    552  C3'  DG A  26      94.623  99.899 202.931  1.00  0.00     0.198 C 
ATOM    553  C1'  DG A  26      92.723  98.750 203.735  1.00  0.00     0.262 C 
ATOM    554  N9   DG A  26      91.618  98.933 202.797  1.00  0.00    -0.293 N 
ATOM    555  C2'  DG A  26      94.071  98.485 203.066  1.00  0.00     0.199 C 
ATOM    556  C8   DG A  26      91.547  99.833 201.763  1.00  0.00     0.214 A 
ATOM    557  C4   DG A  26      90.436  98.233 202.782  1.00  0.00     0.187 A 
ATOM    558  N7   DG A  26      90.426  99.768 201.100  1.00  0.00    -0.234 NA
ATOM    559  C5   DG A  26      89.712  98.760 201.733  1.00  0.00     0.173 A 
ATOM    560  C6   DG A  26      88.420  98.238 201.464  1.00  0.00     0.292 A 
ATOM    561  N1   DG A  26      88.085  97.220 202.349  1.00  0.00    -0.153 N 
ATOM    562  O6   DG A  26      87.620  98.573 200.585  1.00  0.00    -0.265 OA
ATOM    563  C2   DG A  26      88.885  96.765 203.365  1.00  0.00     0.703 A 
ATOM    564  H1   DG A  26      87.184  96.785 202.233  1.00  0.00     0.187 HD
ATOM    565  N2   DG A  26      88.384  95.776 204.108  1.00  0.00    -0.233 N 
ATOM    566  N3   DG A  26      90.087  97.243 203.632  1.00  0.00    -0.044 NA
ATOM    567  H21  DG A  26      88.939  95.405 204.870  1.00  0.00     0.174 HD
ATOM    568  H22  DG A  26      87.469  95.396 203.916  1.00  0.00     0.174 HD
ATOM    569  O2'  DG A  26      94.868  97.709 203.941  1.00  0.00    -0.388 OA
ATOM    570 2'HO  DG A  26      95.759  98.057 203.883  1.00  0.00     0.210 HD
ATOM    571  O3'  DG A  26      96.046  99.920 202.852  1.00  0.00    -0.279 OA
ATOM    572  P    DC A  27      96.766 100.162 201.434  1.00  0.00     0.408 P 
ATOM    573  O5'  DC A  27      96.657  98.751 200.697  1.00  0.00    -0.287 OA
ATOM    574  OP1  DC A  27      98.199 100.440 201.706  1.00  0.00    -0.624 OA
ATOM    575  OP2  DC A  27      95.964 101.144 200.660  1.00  0.00    -0.624 OA
ATOM    576  C5'  DC A  27      97.680  97.763 200.836  1.00  0.00     0.216 C 
ATOM    577  C4'  DC A  27      97.065  96.389 200.981  1.00  0.00     0.180 C 
ATOM    578  O4'  DC A  27      95.670  96.522 201.371  1.00  0.00    -0.353 OA
ATOM    579  C3'  DC A  27      97.015  95.559 199.705  1.00  0.00     0.198 C 
ATOM    580  C1'  DC A  27      94.897  95.518 200.735  1.00  0.00     0.264 C 
ATOM    581  N1   DC A  27      93.910  96.170 199.858  1.00  0.00    -0.278 N 
ATOM    582  C2'  DC A  27      95.865  94.602 199.987  1.00  0.00     0.199 C 
ATOM    583  C2   DC A  27      92.911  95.388 199.268  1.00  0.00     0.352 A 
ATOM    584  C6   DC A  27      93.963  97.515 199.618  1.00  0.00     0.102 A 
ATOM    585  N3   DC A  27      91.999  95.977 198.465  1.00  0.00    -0.177 NA
ATOM    586  O2   DC A  27      92.886  94.170 199.496  1.00  0.00    -0.244 OA
ATOM    587  C4   DC A  27      92.057  97.291 198.241  1.00  0.00     0.128 A 
ATOM    588  N4   DC A  27      91.133  97.826 197.444  1.00  0.00    -0.384 N 
ATOM    589  C5   DC A  27      93.065  98.112 198.824  1.00  0.00     0.067 A 
ATOM    590  H42  DC A  27      90.423  97.234 197.037  1.00  0.00     0.157 HD
ATOM    591  H41  DC A  27      91.140  98.817 197.249  1.00  0.00     0.157 HD
ATOM    592  O2'  DC A  27      96.265  93.558 200.855  1.00  0.00    -0.388 OA
ATOM    593 2'HO  DC A  27      97.221  93.575 200.886  1.00  0.00     0.210 HD
ATOM    594  O3'  DC A  27      98.245  94.881 199.468  1.00  0.00    -0.279 OA
ATOM    595  P    DT A  28      98.637  94.441 197.972  1.00  0.00     0.408 P 
ATOM    596  OP1  DT A  28     100.027  93.918 198.011  1.00  0.00    -0.624 OA
ATOM    597  OP2  DT A  28      98.298  95.554 197.049  1.00  0.00    -0.624 OA
ATOM    598  O5'  DT A  28      97.658  93.222 197.660  1.00  0.00    -0.287 OA
ATOM    599  C5'  DT A  28      97.678  92.041 198.461  1.00  0.00     0.216 C 
ATOM    600  C4'  DT A  28      96.677  91.039 197.936  1.00  0.00     0.180 C 
ATOM    601  O4'  DT A  28      95.334  91.534 198.188  1.00  0.00    -0.353 OA
ATOM    602  C3'  DT A  28      96.711  90.797 196.434  1.00  0.00     0.198 C 
ATOM    603  C1'  DT A  28      94.488  91.192 197.103  1.00  0.00     0.264 C 
ATOM    604  C2'  DT A  28      95.296  90.307 196.155  1.00  0.00     0.199 C 
ATOM    605  N1   DT A  28      94.003  92.432 196.481  1.00  0.00    -0.280 N 
ATOM    606  O2'  DT A  28      95.135  88.957 196.550  1.00  0.00    -0.388 OA
ATOM    607 2'HO  DT A  28      96.006  88.626 196.770  1.00  0.00     0.210 HD
ATOM    608  C2   DT A  28      92.818  92.374 195.770  1.00  0.00     0.331 A 
ATOM    609  C6   DT A  28      94.701  93.613 196.599  1.00  0.00     0.104 A 
ATOM    610  N3   DT A  28      92.417  93.561 195.215  1.00  0.00    -0.275 N 
ATOM    611  O2   DT A  28      92.171  91.351 195.642  1.00  0.00    -0.246 OA
ATOM    612  C4   DT A  28      93.062  94.774 195.296  1.00  0.00     0.250 A 
ATOM    613  H3   DT A  28      91.555  93.536 194.691  1.00  0.00     0.173 HD
ATOM    614  O4   DT A  28      92.570  95.758 194.745  1.00  0.00    -0.268 OA
ATOM    615  C5   DT A  28      94.278  94.752 196.044  1.00  0.00     0.092 A 
ATOM    616  O3'  DT A  28      97.701  89.839 196.071  1.00  0.00    -0.279 OA
ATOM    617  P    DT A  29      98.244  89.786 194.558  1.00  0.00     0.408 P 
ATOM    618  OP1  DT A  29      99.342  88.787 194.513  1.00  0.00    -0.624 OA
ATOM    619  OP2  DT A  29      98.498  91.176 194.099  1.00  0.00    -0.624 OA
ATOM    620  O5'  DT A  29      97.012  89.210 193.724  1.00  0.00    -0.287 OA
ATOM    621  C5'  DT A  29      96.432  87.948 194.051  1.00  0.00     0.216 C 
ATOM    622  C4'  DT A  29      95.314  87.622 193.087  1.00  0.00     0.180 C 
ATOM    623  C3'  DT A  29      95.593  87.923 191.623  1.00  0.00     0.198 C 
ATOM    624  O4'  DT A  29      94.158  88.447 193.394  1.00  0.00    -0.353 OA
ATOM    625  O3'  DT A  29      96.351  86.887 191.004  1.00  0.00    -0.279 OA
ATOM    626  C2'  DT A  29      94.186  88.043 191.053  1.00  0.00     0.199 C 
ATOM    627  P    DC A  30      97.278  87.226 189.733  1.00  0.00     0.408 P 
ATOM    628  OP1  DC A  30      98.051  86.001 189.408  1.00  0.00    -0.624 OA
ATOM    629  O5'  DC A  30      96.236  87.482 188.556  1.00  0.00    -0.287 OA
ATOM    630  OP2  DC A  30      97.996  88.499 189.998  1.00  0.00    -0.624 OA
ATOM    631  C5'  DC A  30      95.251  86.507 188.220  1.00  0.00     0.216 C 
ATOM    632  C4'  DC A  30      94.231  87.099 187.277  1.00  0.00     0.180 C 
ATOM    633  O4'  DC A  30      93.463  88.114 187.979  1.00  0.00    -0.353 OA
ATOM    634  C3'  DC A  30      94.800  87.841 186.078  1.00  0.00     0.198 C 
ATOM    635  C1'  DC A  30      93.120  89.156 187.079  1.00  0.00     0.264 C 
ATOM    636  C2'  DC A  30      93.652  88.767 185.700  1.00  0.00     0.199 C 
ATOM    637  N1   DC A  30      93.681  90.419 187.589  1.00  0.00    -0.278 N 
ATOM    638  O2'  DC A  30      92.636  88.069 185.003  1.00  0.00    -0.388 OA
ATOM    639 2'HO  DC A  30      93.039  87.276 184.648  1.00  0.00     0.210 HD
ATOM    640  C2   DC A  30      93.087  91.622 187.201  1.00  0.00     0.352 A 
ATOM    641  C6   DC A  30      94.764  90.423 188.424  1.00  0.00     0.102 A 
ATOM    642  N3   DC A  30      93.593  92.789 187.660  1.00  0.00    -0.177 NA
ATOM    643  O2   DC A  30      92.107  91.592 186.445  1.00  0.00    -0.244 OA
ATOM    644  C4   DC A  30      94.646  92.782 188.476  1.00  0.00     0.128 A 
ATOM    645  N4   DC A  30      95.108  93.956 188.903  1.00  0.00    -0.384 N 
ATOM    646  C5   DC A  30      95.273  91.571 188.890  1.00  0.00     0.067 A 
ATOM    647  H42  DC A  30      94.656  94.809 188.605  1.00  0.00     0.157 HD
ATOM    648  H41  DC A  30      95.904  93.996 189.524  1.00  0.00     0.157 HD
ATOM    649  O3'  DC A  30      95.157  86.950 185.024  1.00  0.00    -0.279 OA
ATOM    650  P    DA A  31      96.304  87.370 183.978  1.00  0.00     0.408 P 
ATOM    651  OP1  DA A  31      96.628  86.167 183.170  1.00  0.00    -0.624 OA
ATOM    652  O5'  DA A  31      95.588  88.429 183.027  1.00  0.00    -0.287 OA
ATOM    653  OP2  DA A  31      97.386  88.068 184.720  1.00  0.00    -0.624 OA
ATOM    654  C5'  DA A  31      94.448  88.065 182.252  1.00  0.00     0.216 C 
ATOM    655  C4'  DA A  31      93.967  89.248 181.444  1.00  0.00     0.180 C 
ATOM    656  O4'  DA A  31      93.316  90.198 182.330  1.00  0.00    -0.353 OA
ATOM    657  C3'  DA A  31      95.053  90.066 180.761  1.00  0.00     0.198 C 
ATOM    658  C1'  DA A  31      93.592  91.520 181.897  1.00  0.00     0.262 C 
ATOM    659  N9   DA A  31      94.323  92.213 182.958  1.00  0.00    -0.294 N 
ATOM    660  C2'  DA A  31      94.374  91.418 180.587  1.00  0.00     0.199 C 
ATOM    661  C4   DA A  31      94.350  93.570 183.172  1.00  0.00     0.167 A 
ATOM    662  C8   DA A  31      95.117  91.663 183.932  1.00  0.00     0.214 A 
ATOM    663  C5   DA A  31      95.168  93.761 184.270  1.00  0.00     0.149 A 
ATOM    664  N3   DA A  31      93.719  94.520 182.462  1.00  0.00    -0.222 NA
ATOM    665  N7   DA A  31      95.645  92.546 184.745  1.00  0.00    -0.236 NA
ATOM    666  C6   DA A  31      95.364  95.086 184.696  1.00  0.00     0.155 A 
ATOM    667  N1   DA A  31      94.745  96.067 184.003  1.00  0.00    -0.222 NA
ATOM    668  C2   DA A  31      93.982  95.728 182.957  1.00  0.00     0.237 A 
ATOM    669  O2'  DT A  29      93.595  86.768 190.877  1.00  0.00    -0.388 OA
ATOM    670  C1'  DT A  29      93.468  88.763 192.195  1.00  0.00     0.264 C 
ATOM    671 2'HO  DT A  29      94.300  86.124 190.958  1.00  0.00     0.210 HD
ATOM    672  N1   DT A  29      93.441  90.225 192.042  1.00  0.00    -0.280 N 
ATOM    673  C2   DT A  29      92.400  90.780 191.319  1.00  0.00     0.331 A 
ATOM    674  C6   DT A  29      94.418  91.019 192.599  1.00  0.00     0.104 A 
ATOM    675  O2   DT A  29      91.516  90.113 190.811  1.00  0.00    -0.246 OA
ATOM    676  N3   DT A  29      92.433  92.146 191.210  1.00  0.00    -0.275 N 
ATOM    677  C4   DT A  29      93.374  92.997 191.740  1.00  0.00     0.250 A 
ATOM    678  H3   DT A  29      91.684  92.571 190.683  1.00  0.00     0.173 HD
ATOM    679  O4   DT A  29      93.266  94.208 191.553  1.00  0.00    -0.268 OA
ATOM    680  C5   DT A  29      94.415  92.350 192.474  1.00  0.00     0.092 A 
ATOM    681 2'HO  DC A  25      90.956 102.871 206.471  1.00  0.00     0.210 HD
BRANCH 540 682
ATOM    682  N1   DC A  25      87.324 100.646 205.493  1.00  0.00    -0.278 N 
ATOM    683  C2   DC A  25      87.322  99.523 206.325  1.00  0.00     0.352 A 
ATOM    684  N3   DC A  25      86.650  98.415 205.939  1.00  0.00    -0.177 NA
ATOM    685  O2   DC A  25      87.936  99.569 207.401  1.00  0.00    -0.244 OA
ATOM    686  C4   DC A  25      85.996  98.404 204.777  1.00  0.00     0.128 A 
ATOM    687  N4   DC A  25      85.346  97.289 204.441  1.00  0.00    -0.384 N 
ATOM    688  C5   DC A  25      85.981  99.534 203.908  1.00  0.00     0.067 A 
ATOM    689  H42  DC A  25      85.352  96.497 205.067  1.00  0.00     0.157 HD
ATOM    690  H41  DC A  25      84.837  97.239 203.570  1.00  0.00     0.157 HD
ATOM    691  C6   DC A  25      86.651 100.624 204.304  1.00  0.00     0.102 A 
ENDBRANCH 540 682
BRANCH 666 692
ATOM    692  N6   DA A  31      96.120  95.423 185.740  1.00  0.00    -0.382 N 
ATOM    693  H62  DA A  31      97.125  95.486 185.634  1.00  0.00     0.157 HD
ATOM    694  H61  DA A  31      95.691  95.616 186.632  1.00  0.00     0.157 HD
ENDBRANCH 666 692
BRANCH 660 695
ATOM    695  O2'  DA A  31      93.455  91.394 179.511  1.00  0.00    -0.388 OA
ATOM    696 2'HO  DA A  31      92.812  90.714 179.713  1.00  0.00     0.210 HD
ENDBRANCH 660 695
BRANCH 657 697
ATOM    697  O3'  DA A  31      95.452  89.492 179.519  1.00  0.00    -0.279 OA
BRANCH 697 698
ATOM    698  P    DA A  32      96.889  89.857 178.897  1.00  0.00     0.408 P 
ATOM    699  OP2  DA A  32      97.923  89.621 179.935  1.00  0.00    -0.624 OA
ATOM    700  OP1  DA A  32      96.991  89.160 177.588  1.00  0.00    -0.624 OA
BRANCH 698 701
ATOM    701  O5'  DA A  32      96.804  91.424 178.619  1.00  0.00    -0.287 OA
ATOM    702  C5'  DA A  32      95.881  91.949 177.667  1.00  0.00     0.216 C 
ATOM    703  C4'  DA A  32      95.817  93.457 177.772  1.00  0.00     0.180 C 
ATOM    704  C3'  DA A  32      97.092  94.203 177.417  1.00  0.00     0.198 C 
ATOM    705  O4'  DA A  32      95.591  93.849 179.146  1.00  0.00    -0.353 OA
ATOM    706  O3'  DA A  32      97.246  94.329 176.005  1.00  0.00    -0.279 OA
ATOM    707  C2'  DA A  32      96.893  95.555 178.102  1.00  0.00     0.199 C 
ATOM    708  P    DT A  33      98.720  94.379 175.363  1.00  0.00     0.408 P 
ATOM    709  OP1  DT A  33      98.582  94.896 173.978  1.00  0.00    -0.624 OA
ATOM    710  OP2  DT A  33      99.372  93.065 175.595  1.00  0.00    -0.624 OA
ATOM    711  O5'  DT A  33      99.483  95.475 176.232  1.00  0.00    -0.287 OA
ATOM    712  C5'  DT A  33      99.215  96.866 176.060  1.00  0.00     0.216 C 
ATOM    713  C4'  DT A  33     100.148  97.686 176.919  1.00  0.00     0.180 C 
ATOM    714  O4'  DT A  33      99.770  97.539 178.311  1.00  0.00    -0.353 OA
ATOM    715  C3'  DT A  33     101.608  97.260 176.886  1.00  0.00     0.198 C 
ATOM    716  C1'  DT A  33     100.925  97.617 179.127  1.00  0.00     0.264 C 
ATOM    717  N1   DT A  33     100.981  96.408 179.962  1.00  0.00    -0.280 N 
ATOM    718  C2'  DT A  33     102.140  97.793 178.213  1.00  0.00     0.199 C 
ATOM    719  C2   DT A  33     101.253  96.566 181.308  1.00  0.00     0.331 A 
ATOM    720  C6   DT A  33     100.769  95.158 179.424  1.00  0.00     0.104 A 
ATOM    721  N3   DT A  33     101.300  95.402 182.031  1.00  0.00    -0.275 N 
ATOM    722  O2   DT A  33     101.439  97.654 181.824  1.00  0.00    -0.246 OA
ATOM    723  H3   DT A  33     101.509  95.493 183.015  1.00  0.00     0.173 HD
ATOM    724  C4   DT A  33     101.101  94.126 181.560  1.00  0.00     0.250 A 
ATOM    725  C5   DT A  33     100.819  94.045 180.161  1.00  0.00     0.092 A 
ATOM    726  O4   DT A  33     101.172  93.177 182.340  1.00  0.00    -0.268 OA
ATOM    727  O2'  DT A  33     102.437  99.173 178.124  1.00  0.00    -0.388 OA
ATOM    728 2'HO  DT A  33     102.675  99.353 177.215  1.00  0.00     0.210 HD
ATOM    729  O3'  DT A  33     102.285  97.813 175.762  1.00  0.00    -0.279 OA
ATOM    730  P    DG A  34     103.389  96.940 174.986  1.00  0.00     0.408 P 
ATOM    731  OP2  DG A  34     102.771  95.647 174.594  1.00  0.00    -0.624 OA
ATOM    732  OP1  DG A  34     103.995  97.810 173.946  1.00  0.00    -0.624 OA
ATOM    733  O5'  DG A  34     104.492  96.650 176.099  1.00  0.00    -0.287 OA
ATOM    734  C5'  DG A  34     105.437  95.594 175.941  1.00  0.00     0.216 C 
ATOM    735  C4'  DG A  34     106.627  95.827 176.842  1.00  0.00     0.180 C 
ATOM    736  O4'  DG A  34     107.321  97.023 176.396  1.00  0.00    -0.353 OA
ATOM    737  C3'  DG A  34     106.296  96.091 178.306  1.00  0.00     0.198 C 
ATOM    738  C1'  DG A  34     107.767  97.765 177.516  1.00  0.00     0.262 C 
ATOM    739  N9   DG A  34     107.107  99.067 177.495  1.00  0.00    -0.293 N 
ATOM    740  C2'  DG A  34     107.472  96.942 178.770  1.00  0.00     0.199 C 
ATOM    741  C8   DG A  34     105.893  99.376 176.933  1.00  0.00     0.214 A 
ATOM    742  C4   DG A  34     107.590 100.233 178.037  1.00  0.00     0.187 A 
ATOM    743  N7   DG A  34     105.568 100.632 177.067  1.00  0.00    -0.234 NA
ATOM    744  C5   DG A  34     106.634 101.188 177.764  1.00  0.00     0.173 A 
ATOM    745  C6   DG A  34     106.854 102.519 178.203  1.00  0.00     0.292 A 
ATOM    746  N1   DG A  34     108.066 102.642 178.873  1.00  0.00    -0.153 N 
ATOM    747  O6   DG A  34     106.129 103.511 178.061  1.00  0.00    -0.265 OA
ATOM    748  H1   DG A  34     108.308 103.555 179.221  1.00  0.00     0.187 HD
ATOM    749  C2   DG A  34     108.951 101.619 179.093  1.00  0.00     0.703 A 
ATOM    750  N2   DG A  34     110.063 101.937 179.762  1.00  0.00    -0.233 N 
ATOM    751  N3   DG A  34     108.761 100.377 178.691  1.00  0.00    -0.044 NA
ATOM    752  H22  DG A  34     110.221 102.884 180.074  1.00  0.00     0.174 HD
ATOM    753  H21  DG A  34     110.745 101.217 179.949  1.00  0.00     0.174 HD
ATOM    754  O2'  DG A  34     108.601  96.137 179.058  1.00  0.00    -0.388 OA
ATOM    755 2'HO  DG A  34     108.273  95.250 179.208  1.00  0.00     0.210 HD
ATOM    756  O3'  DG A  34     106.188  94.871 179.038  1.00  0.00    -0.279 OA
ATOM    757  P    DG A  35     105.248  94.798 180.341  1.00  0.00     0.408 P 
ATOM    758  OP2  DG A  35     103.895  95.291 179.976  1.00  0.00    -0.624 OA
ATOM    759  O5'  DG A  35     105.905  95.835 181.357  1.00  0.00    -0.287 OA
ATOM    760  OP1  DG A  35     105.399  93.435 180.912  1.00  0.00    -0.624 OA
ATOM    761  C5'  DG A  35     107.215  95.623 181.884  1.00  0.00     0.216 C 
ATOM    762  C4'  DG A  35     107.568  96.720 182.863  1.00  0.00     0.180 C 
ATOM    763  C3'  DG A  35     106.473  97.076 183.864  1.00  0.00     0.198 C 
ATOM    764  O4'  DG A  35     107.823  97.939 182.111  1.00  0.00    -0.353 OA
ATOM    765  C2'  DG A  35     106.685  98.569 184.094  1.00  0.00     0.199 C 
ATOM    766  O3'  DG A  35     106.610  96.325 185.069  1.00  0.00    -0.279 OA
ATOM    767  C1'  DG A  35     107.143  99.024 182.709  1.00  0.00     0.262 C 
ATOM    768  O2'  DG A  35     107.731  98.799 185.019  1.00  0.00    -0.388 OA
ATOM    769  N9   DG A  35     106.052  99.425 181.826  1.00  0.00    -0.293 N 
ATOM    770  C8   DG A  35     105.125  98.606 181.230  1.00  0.00     0.214 A 
ATOM    771  C4   DG A  35     105.754 100.704 181.423  1.00  0.00     0.187 A 
ATOM    772  N7   DG A  35     104.268  99.252 180.488  1.00  0.00    -0.234 NA
ATOM    773  C5   DG A  35     104.654 100.582 180.601  1.00  0.00     0.173 A 
ATOM    774  C6   DG A  35     104.102 101.753 180.019  1.00  0.00     0.292 A 
ATOM    775  N1   DG A  35     104.802 102.890 180.401  1.00  0.00    -0.153 N 
ATOM    776  O6   DG A  35     103.131 101.856 179.262  1.00  0.00    -0.265 OA
ATOM    777  C2   DG A  35     105.892 102.903 181.232  1.00  0.00     0.703 A 
ATOM    778  H1   DG A  35     104.476 103.771 180.034  1.00  0.00     0.187 HD
ATOM    779  N2   DG A  35     106.429 104.101 181.480  1.00  0.00    -0.233 N 
ATOM    780  N3   DG A  35     106.419 101.823 181.778  1.00  0.00    -0.044 NA
ATOM    781  H22  DG A  35     106.028 104.933 181.074  1.00  0.00     0.174 HD
ATOM    782  H21  DG A  35     107.234 104.164 182.087  1.00  0.00     0.174 HD
ATOM    783 2'HO  DG A  35     108.049  97.939 185.297  1.00  0.00     0.210 HD
ATOM    784  P    DC A  36     105.327  96.078 186.010  1.00  0.00     0.408 P 
ATOM    785  O5'  DC A  36     105.553  97.063 187.241  1.00  0.00    -0.287 OA
ATOM    786  OP2  DC A  36     104.106  96.512 185.284  1.00  0.00    -0.624 OA
ATOM    787  OP1  DC A  36     105.421  94.686 186.516  1.00  0.00    -0.624 OA
ATOM    788  C5'  DC A  36     104.619  97.115 188.321  1.00  0.00     0.216 C 
ATOM    789  C4'  DC A  36     104.921  98.290 189.222  1.00  0.00     0.180 C 
ATOM    790  C3'  DC A  36     105.332  99.575 188.507  1.00  0.00     0.198 C 
ATOM    791  O4'  DC A  36     106.044  97.936 190.080  1.00  0.00    -0.353 OA
ATOM    792  O3'  DC A  36     104.807 100.725 189.167  1.00  0.00    -0.279 OA
ATOM    793  C2'  DC A  36     106.855  99.534 188.559  1.00  0.00     0.199 C 
ATOM    794  P    DA A  37     103.482 101.439 188.598  1.00  0.00     0.408 P 
ATOM    795  OP2  DA A  37     102.477 100.394 188.280  1.00  0.00    -0.624 OA
ATOM    796  OP1  DA A  37     103.135 102.525 189.549  1.00  0.00    -0.624 OA
ATOM    797  O5'  DA A  37     103.959 102.107 187.232  1.00  0.00    -0.287 OA
ATOM    798  C5'  DA A  37     105.123 102.933 187.183  1.00  0.00     0.216 C 
ATOM    799  C4'  DA A  37     104.901 104.091 186.237  1.00  0.00     0.180 C 
ATOM    800  C3'  DA A  37     103.468 104.607 186.164  1.00  0.00     0.198 C 
ATOM    801  O4'  DA A  37     105.218 103.652 184.887  1.00  0.00    -0.353 OA
ATOM    802  O3'  DA A  37     103.231 105.633 187.125  1.00  0.00    -0.279 OA
ATOM    803  C2'  DA A  37     103.368 105.125 184.735  1.00  0.00     0.199 C 
ATOM    804  P    DT A  38     101.755 105.829 187.735  1.00  0.00     0.408 P 
ATOM    805  O5'  DT A  38     100.790 105.631 186.483  1.00  0.00    -0.287 OA
ATOM    806  OP1  DT A  38     101.646 107.237 188.193  1.00  0.00    -0.624 OA
ATOM    807  OP2  DT A  38     101.495 104.725 188.692  1.00  0.00    -0.624 OA
ATOM    808  C5'  DT A  38     100.556 106.691 185.556  1.00  0.00     0.216 C 
ATOM    809  C4'  DT A  38      99.533 106.266 184.530  1.00  0.00     0.180 C 
ATOM    810  C3'  DT A  38      98.202 105.795 185.097  1.00  0.00     0.198 C 
ATOM    811  O4'  DT A  38     100.041 105.119 183.800  1.00  0.00    -0.353 OA
ATOM    812  C2'  DT A  38      97.680 104.871 184.004  1.00  0.00     0.199 C 
ATOM    813  O3'  DT A  38      97.332 106.895 185.350  1.00  0.00    -0.279 OA
ATOM    814  O2'  DT A  38      97.088 105.607 182.949  1.00  0.00    -0.388 OA
ATOM    815  C1'  DT A  38      98.974 104.239 183.489  1.00  0.00     0.264 C 
ATOM    816 2'HO  DT A  38      96.170 105.745 183.188  1.00  0.00     0.210 HD
ATOM    817  N1   DT A  38      99.271 102.927 184.081  1.00  0.00    -0.280 N 
ATOM    818  C6   DT A  38     100.046 102.811 185.214  1.00  0.00     0.104 A 
ATOM    819  C2   DT A  38      98.749 101.807 183.460  1.00  0.00     0.331 A 
ATOM    820  C5   DT A  38     100.334 101.629 185.766  1.00  0.00     0.092 A 
ATOM    821  C4   DT A  38      99.835 100.425 185.179  1.00  0.00     0.250 A 
ATOM    822  N3   DT A  38      99.069 100.612 184.052  1.00  0.00    -0.275 N 
ATOM    823  O4   DT A  38     100.028  99.282 185.593  1.00  0.00    -0.268 OA
ATOM    824  H3   DT A  38      98.711  99.779 183.609  1.00  0.00     0.173 HD
ATOM    825  O2   DT A  38      98.054 101.865 182.461  1.00  0.00    -0.246 OA
ATOM    826  P    DT A  39      96.017 106.683 186.251  1.00  0.00     0.408 P 
ATOM    827  OP1  DT A  39      95.471 108.031 186.555  1.00  0.00    -0.624 OA
ATOM    828  OP2  DT A  39      96.353 105.761 187.367  1.00  0.00    -0.624 OA
ATOM    829  O5'  DT A  39      94.996 105.947 185.274  1.00  0.00    -0.287 OA
ATOM    830  C5'  DT A  39      94.368 104.723 185.651  1.00  0.00     0.216 C 
ATOM    831  C4'  DT A  39      93.764 104.055 184.438  1.00  0.00     0.180 C 
ATOM    832  C3'  DT A  39      92.652 103.058 184.732  1.00  0.00     0.198 C 
ATOM    833  O4'  DT A  39      94.793 103.273 183.770  1.00  0.00    -0.353 OA
ATOM    834  O3'  DT A  39      91.385 103.704 184.833  1.00  0.00    -0.279 OA
ATOM    835  C2'  DT A  39      92.738 102.115 183.540  1.00  0.00     0.199 C 
ATOM    836  P    DG A  40      90.277 103.137 185.853  1.00  0.00     0.408 P 
ATOM    837  OP1  DG A  40      89.166 104.121 185.889  1.00  0.00    -0.624 OA
ATOM    838  O5'  DG A  40      89.743 101.814 185.144  1.00  0.00    -0.287 OA
ATOM    839  OP2  DG A  40      90.953 102.746 187.118  1.00  0.00    -0.624 OA
ATOM    840  C5'  DG A  40      89.179 101.860 183.834  1.00  0.00     0.216 C 
ATOM    841  C4'  DG A  40      88.699 100.489 183.428  1.00  0.00     0.180 C 
ATOM    842  O4'  DG A  40      89.851  99.661 183.113  1.00  0.00    -0.353 OA
ATOM    843  C3'  DG A  40      87.953  99.715 184.505  1.00  0.00     0.198 C 
ATOM    844  C1'  DG A  40      89.640  98.344 183.590  1.00  0.00     0.262 C 
ATOM    845  C2'  DG A  40      88.203  98.266 184.104  1.00  0.00     0.199 C 
ATOM    846  N9   DG A  40      90.643  98.055 184.609  1.00  0.00    -0.293 N 
ATOM    847  O2'  DG A  40      87.358  97.880 183.036  1.00  0.00    -0.388 OA
ATOM    848 2'HO  DG A  40      86.641  98.514 183.010  1.00  0.00     0.210 HD
ATOM    849  C8   DG A  40      91.397  98.961 185.314  1.00  0.00     0.214 A 
ATOM    850  C4   DG A  40      91.019  96.811 185.053  1.00  0.00     0.187 A 
ATOM    851  N7   DG A  40      92.218  98.401 186.160  1.00  0.00    -0.234 NA
ATOM    852  C5   DG A  40      91.989  97.039 186.007  1.00  0.00     0.173 A 
ATOM    853  C6   DG A  40      92.582  95.925 186.658  1.00  0.00     0.292 A 
ATOM    854  N1   DG A  40      92.054  94.725 186.196  1.00  0.00    -0.153 N 
ATOM    855  O6   DG A  40      93.457  95.917 187.530  1.00  0.00    -0.265 OA
ATOM    856  C2   DG A  40      91.082  94.608 185.236  1.00  0.00     0.703 A 
ATOM    857  H1   DG A  40      92.416  93.876 186.602  1.00  0.00     0.187 HD
ATOM    858  N3   DG A  40      90.521  95.633 184.623  1.00  0.00    -0.044 NA
ATOM    859  N2   DG A  40      90.703  93.366 184.926  1.00  0.00    -0.233 N 
ATOM    860  H21  DG A  40      89.990  93.228 184.225  1.00  0.00     0.174 HD
ATOM    861  H22  DG A  40      91.126  92.572 185.388  1.00  0.00     0.174 HD
ATOM    862  O3'  DG A  40      86.568 100.045 184.523  1.00  0.00    -0.279 OA
ATOM    863  P    DA A  41      85.699  99.775 185.850  1.00  0.00     0.408 P 
ATOM    864  OP2  DA A  41      86.443 100.312 187.018  1.00  0.00    -0.624 OA
ATOM    865  OP1  DA A  41      84.319 100.252 185.578  1.00  0.00    -0.624 OA
ATOM    866  O5'  DA A  41      85.662  98.187 185.971  1.00  0.00    -0.287 OA
ATOM    867  C5'  DA A  41      85.032  97.387 184.970  1.00  0.00     0.216 C 
ATOM    868  C4'  DA A  41      84.914  95.959 185.446  1.00  0.00     0.180 C 
ATOM    869  C3'  DA A  41      84.473  95.793 186.893  1.00  0.00     0.198 C 
ATOM    870  O4'  DA A  41      86.224  95.333 185.381  1.00  0.00    -0.353 OA
ATOM    871  O3'  DA A  41      83.052  95.789 186.998  1.00  0.00    -0.279 OA
ATOM    872  C2'  DA A  41      85.097  94.459 187.288  1.00  0.00     0.199 C 
ATOM    873  P    DA A  42      82.355  95.907 188.441  1.00  0.00     0.408 P 
ATOM    874  O5'  DA A  42      82.549  94.460 189.080  1.00  0.00    -0.287 OA
ATOM    875  OP1  DA A  42      80.902  96.116 188.214  1.00  0.00    -0.624 OA
ATOM    876  OP2  DA A  42      83.118  96.889 189.254  1.00  0.00    -0.624 OA
ATOM    877  C5'  DA A  42      83.013  94.301 190.420  1.00  0.00     0.216 C 
ATOM    878  C4'  DA A  42      83.522  92.896 190.631  1.00  0.00     0.180 C 
ATOM    879  C3'  DA A  42      83.829  92.532 192.078  1.00  0.00     0.198 C 
ATOM    880  O4'  DA A  42      84.787  92.748 189.924  1.00  0.00    -0.353 OA
ATOM    881  O3'  DA A  42      82.685  91.990 192.736  1.00  0.00    -0.279 OA
ATOM    882  C2'  DA A  42      84.957  91.518 191.933  1.00  0.00     0.199 C 
ATOM    883  P    DG A  43      82.377  92.388 194.264  1.00  0.00     0.408 P 
ATOM    884  O5'  DG A  43      83.338  91.438 195.108  1.00  0.00    -0.287 OA
ATOM    885  OP1  DG A  43      80.974  91.992 194.546  1.00  0.00    -0.624 OA
ATOM    886  OP2  DG A  43      82.799  93.797 194.475  1.00  0.00    -0.624 OA
ATOM    887  C5'  DG A  43      83.318  90.023 194.919  1.00  0.00     0.216 C 
ATOM    888  C4'  DG A  43      84.500  89.385 195.612  1.00  0.00     0.180 C 
ATOM    889  C3'  DG A  43      84.685  89.756 197.077  1.00  0.00     0.198 C 
ATOM    890  O4'  DG A  43      85.724  89.835 194.972  1.00  0.00    -0.353 OA
ATOM    891  O3'  DG A  43      83.880  88.945 197.929  1.00  0.00    -0.279 OA
ATOM    892  C2'  DG A  43      86.175  89.522 197.286  1.00  0.00     0.199 C 
ATOM    893  P    DA A  44      83.333  89.542 199.320  1.00  0.00     0.408 P 
ATOM    894  OP1  DA A  44      82.383  88.545 199.879  1.00  0.00    -0.624 OA
ATOM    895  OP2  DA A  44      82.881  90.938 199.095  1.00  0.00    -0.624 OA
ATOM    896  O5'  DA A  44      84.621  89.578 200.258  1.00  0.00    -0.287 OA
ATOM    897  C5'  DA A  44      85.239  88.374 200.709  1.00  0.00     0.216 C 
ATOM    898  C4'  DA A  44      86.529  88.687 201.432  1.00  0.00     0.180 C 
ATOM    899  C3'  DA A  44      86.400  89.636 202.617  1.00  0.00     0.198 C 
ATOM    900  O4'  DA A  44      87.429  89.362 200.511  1.00  0.00    -0.353 OA
ATOM    901  O3'  DA A  44      86.091  88.931 203.817  1.00  0.00    -0.279 OA
ATOM    902  C2'  DA A  44      87.772  90.295 202.670  1.00  0.00     0.199 C 
ATOM    903  P    DG A  45      85.306  89.681 205.005  1.00  0.00     0.408 P 
ATOM    904  OP1  DG A  45      85.477  88.858 206.228  1.00  0.00    -0.624 OA
ATOM    905  OP2  DG A  45      83.939  90.008 204.525  1.00  0.00    -0.624 OA
ATOM    906  O5'  DG A  45      86.109  91.044 205.199  1.00  0.00    -0.287 OA
ATOM    907  C5'  DG A  45      87.188  91.135 206.128  1.00  0.00     0.216 C 
ATOM    908  C4'  DG A  45      87.960  92.413 205.906  1.00  0.00     0.180 C 
ATOM    909  O4'  DG A  45      87.525  93.398 206.883  1.00  0.00    -0.353 OA
ATOM    910  C3'  DG A  45      89.464  92.302 206.113  1.00  0.00     0.198 C 
ATOM    911  C1'  DG A  45      88.640  94.136 207.350  1.00  0.00     0.262 C 
ATOM    912  N9   DG A  45      88.791  93.883 208.780  1.00  0.00    -0.293 N 
ATOM    913  C2'  DG A  45      89.853  93.720 206.516  1.00  0.00     0.199 C 
ATOM    914  C8   DG A  45      88.482  94.741 209.807  1.00  0.00     0.214 A 
ATOM    915  C4   DG A  45      89.274  92.737 209.365  1.00  0.00     0.187 A 
ATOM    916  N7   DG A  45      88.727  94.241 210.987  1.00  0.00    -0.234 NA
ATOM    917  C5   DG A  45      89.229  92.973 210.723  1.00  0.00     0.173 A 
ATOM    918  C6   DG A  45      89.675  91.956 211.609  1.00  0.00     0.292 A 
ATOM    919  O6   DG A  45      89.723  91.972 212.843  1.00  0.00    -0.265 OA
ATOM    920  N1   DG A  45      90.103  90.829 210.918  1.00  0.00    -0.153 N 
ATOM    921  H1   DG A  45      90.438  90.051 211.466  1.00  0.00     0.187 HD
ATOM    922  C2   DG A  45      90.106  90.696 209.553  1.00  0.00     0.703 A 
ATOM    923  N2   DG A  45      90.558  89.535 209.074  1.00  0.00    -0.233 N 
ATOM    924  N3   DG A  45      89.697  91.632 208.718  1.00  0.00    -0.044 NA
ATOM    925  H22  DG A  45      90.877  88.810 209.698  1.00  0.00     0.174 HD
ATOM    926  H21  DG A  45      90.578  89.397 208.073  1.00  0.00     0.174 HD
ATOM    927  O2'  DG A  45      89.943  94.568 205.388  1.00  0.00    -0.388 OA
ATOM    928 2'HO  DG A  45      90.827  94.463 205.032  1.00  0.00     0.210 HD
ATOM    929  O3'  DG A  45      90.132  91.871 204.932  1.00  0.00    -0.279 OA
ATOM    930  P    DG A  46      91.539  91.101 205.050  1.00  0.00     0.408 P 
ATOM    931  OP2  DG A  46      91.283  89.743 205.598  1.00  0.00    -0.624 OA
ATOM    932  O5'  DG A  46      92.339  91.932 206.150  1.00  0.00    -0.287 OA
ATOM    933  OP1  DG A  46      92.241  91.248 203.749  1.00  0.00    -0.624 OA
ATOM    934  C5'  DG A  46      93.765  92.006 206.130  1.00  0.00     0.216 C 
ATOM    935  C4'  DG A  46      94.211  93.443 205.980  1.00  0.00     0.180 C 
ATOM    936  O4'  DG A  46      93.190  94.319 206.511  1.00  0.00    -0.353 OA
ATOM    937  C3'  DG A  46      95.460  93.821 206.763  1.00  0.00     0.198 C 
ATOM    938  C1'  DG A  46      93.788  95.520 206.952  1.00  0.00     0.262 C 
ATOM    939  N9   DG A  46      93.221  95.861 208.254  1.00  0.00    -0.293 N 
ATOM    940  C2'  DG A  46      95.309  95.329 206.976  1.00  0.00     0.199 C 
ATOM    941  C4   DG A  46      92.928  94.993 209.278  1.00  0.00     0.187 A 
ATOM    942  C8   DG A  46      92.875  97.113 208.699  1.00  0.00     0.214 A 
ATOM    943  C5   DG A  46      92.421  95.779 210.291  1.00  0.00     0.173 A 
ATOM    944  N3   DG A  46      93.113  93.657 209.263  1.00  0.00    -0.044 NA
ATOM    945  N7   DG A  46      92.393  97.115 209.912  1.00  0.00    -0.234 NA
ATOM    946  C6   DG A  46      92.022  95.158 211.504  1.00  0.00     0.292 A 
ATOM    947  N1   DG A  46      92.224  93.784 211.464  1.00  0.00    -0.153 N 
ATOM    948  O6   DG A  46      91.549  95.680 212.519  1.00  0.00    -0.265 OA
ATOM    949  H1   DG A  46      91.970  93.261 212.287  1.00  0.00     0.187 HD
ATOM    950  C2   DG A  46      92.739  93.095 210.396  1.00  0.00     0.703 A 
ATOM    951  N2   DG A  46      92.854  91.774 210.548  1.00  0.00    -0.233 N 
ATOM    952  H22  DG A  46      92.586  91.332 211.413  1.00  0.00     0.174 HD
ATOM    953  H21  DG A  46      93.229  91.230 209.783  1.00  0.00     0.174 HD
ATOM    954  O2'  DG A  46      95.865  96.054 205.896  1.00  0.00    -0.388 OA
ATOM    955 2'HO  DG A  46      95.346  95.851 205.115  1.00  0.00     0.210 HD
ATOM    956  O3'  DG A  46      96.646  93.511 206.035  1.00  0.00    -0.279 OA
ATOM    957  P    DT A  47      97.288  92.039 206.131  1.00  0.00     0.408 P 
ATOM    958  OP2  DT A  47      96.611  91.165 205.139  1.00  0.00    -0.624 OA
ATOM    959  O5'  DT A  47      96.888  91.530 207.588  1.00  0.00    -0.287 OA
ATOM    960  OP1  DT A  47      98.765  92.192 206.085  1.00  0.00    -0.624 OA
ATOM    961  C5'  DT A  47      97.579  91.994 208.747  1.00  0.00     0.216 C 
ATOM    962  C4'  DT A  47      97.056  91.296 209.980  1.00  0.00     0.180 C 
ATOM    963  O4'  DT A  47      95.605  91.207 209.893  1.00  0.00    -0.353 OA
ATOM    964  C3'  DT A  47      97.528  89.858 210.159  1.00  0.00     0.198 C 
ATOM    965  C1'  DT A  47      95.177  89.921 210.303  1.00  0.00     0.264 C 
ATOM    966  N1   DT A  47      94.629  89.220 209.133  1.00  0.00    -0.280 N 
ATOM    967  C2'  DT A  47      96.381  89.225 210.936  1.00  0.00     0.199 C 
ATOM    968  C2   DT A  47      93.450  88.515 209.292  1.00  0.00     0.331 A 
ATOM    969  C6   DT A  47      95.270  89.260 207.914  1.00  0.00     0.104 A 
ATOM    970  O2   DT A  47      92.845  88.462 210.349  1.00  0.00    -0.246 OA
ATOM    971  N3   DT A  47      93.000  87.875 208.166  1.00  0.00    -0.275 N 
ATOM    972  H3   DT A  47      92.142  87.351 208.249  1.00  0.00     0.173 HD
ATOM    973  C4   DT A  47      93.592  87.868 206.924  1.00  0.00     0.250 A 
ATOM    974  O4   DT A  47      93.080  87.217 206.015  1.00  0.00    -0.268 OA
ATOM    975  C5   DT A  47      94.800  88.625 206.837  1.00  0.00     0.092 A 
ATOM    976  O2'  DT A  47      96.432  89.572 212.306  1.00  0.00    -0.388 OA
ATOM    977 2'HO  DT A  47      97.329  89.854 212.489  1.00  0.00     0.210 HD
ATOM    978  O3'  DT A  47      98.765  89.803 210.866  1.00  0.00    -0.279 OA
ATOM    979  P    DC A  48      99.677  88.480 210.783  1.00  0.00     0.408 P 
ATOM    980  O5'  DC A  48      99.054  87.514 211.885  1.00  0.00    -0.287 OA
ATOM    981  OP1  DC A  48     101.045  88.858 211.222  1.00  0.00    -0.624 OA
ATOM    982  OP2  DC A  48      99.482  87.851 209.452  1.00  0.00    -0.624 OA
ATOM    983  C5'  DC A  48      99.010  87.898 213.258  1.00  0.00     0.216 C 
ATOM    984  C4'  DC A  48      98.204  86.901 214.055  1.00  0.00     0.180 C 
ATOM    985  O4'  DC A  48      96.829  86.914 213.582  1.00  0.00    -0.353 OA
ATOM    986  C3'  DC A  48      98.635  85.448 213.914  1.00  0.00     0.198 C 
ATOM    987  C1'  DC A  48      96.304  85.596 213.599  1.00  0.00     0.264 C 
ATOM    988  C2'  DC A  48      97.354  84.698 214.253  1.00  0.00     0.199 C 
ATOM    989  N1   DC A  48      95.971  85.211 212.217  1.00  0.00    -0.278 N 
ATOM    990  O2'  DC A  48      97.127  84.680 215.649  1.00  0.00    -0.388 OA
ATOM    991 2'HO  DC A  48      97.948  84.951 216.063  1.00  0.00     0.210 HD
ATOM    992  C2   DC A  48      94.943  84.288 212.002  1.00  0.00     0.352 A 
ATOM    993  C6   DC A  48      96.650  85.746 211.157  1.00  0.00     0.102 A 
ATOM    994  O2   DC A  48      94.348  83.812 212.979  1.00  0.00    -0.244 OA
ATOM    995  N3   DC A  48      94.624  83.936 210.737  1.00  0.00    -0.177 NA
ATOM    996  C4   DC A  48      95.289  84.467 209.710  1.00  0.00     0.128 A 
ATOM    997  C5   DC A  48      96.344  85.408 209.898  1.00  0.00     0.067 A 
ATOM    998  N4   DC A  48      94.938  84.092 208.479  1.00  0.00    -0.384 N 
ATOM    999  H41  DC A  48      95.417  84.472 207.676  1.00  0.00     0.157 HD
ATOM   1000  H42  DC A  48      94.190  83.426 208.354  1.00  0.00     0.157 HD
ATOM   1001  O3'  DC A  48      99.706  85.130 214.797  1.00  0.00    -0.279 OA
ATOM   1002  P    DA A  49     100.666  83.882 214.470  1.00  0.00     0.408 P 
ATOM   1003  O5'  DA A  49      99.694  82.621 214.535  1.00  0.00    -0.287 OA
ATOM   1004  OP1  DA A  49     101.643  83.773 215.583  1.00  0.00    -0.624 OA
ATOM   1005  OP2  DA A  49     101.156  84.021 213.075  1.00  0.00    -0.624 OA
ATOM   1006  C5'  DA A  49      98.978  82.308 215.729  1.00  0.00     0.216 C 
ATOM   1007  C4'  DA A  49      98.149  81.060 215.529  1.00  0.00     0.180 C 
ATOM   1008  O4'  DA A  49      96.955  81.389 214.773  1.00  0.00    -0.353 OA
ATOM   1009  C3'  DA A  49      98.800  79.963 214.703  1.00  0.00     0.198 C 
ATOM   1010  C1'  DA A  49      96.561  80.266 214.004  1.00  0.00     0.262 C 
ATOM   1011  C2'  DA A  49      97.596  79.159 214.224  1.00  0.00     0.199 C 
ATOM   1012  N9   DA A  49      96.442  80.682 212.606  1.00  0.00    -0.294 N 
ATOM   1013  O2'  DA A  49      97.118  78.293 215.238  1.00  0.00    -0.388 OA
ATOM   1014 2'HO  DA A  49      97.640  77.492 215.189  1.00  0.00     0.210 HD
ATOM   1015  C4   DA A  49      95.600  80.135 211.668  1.00  0.00     0.167 A 
ATOM   1016  C8   DA A  49      97.130  81.679 211.958  1.00  0.00     0.214 A 
ATOM   1017  N3   DA A  49      94.732  79.125 211.842  1.00  0.00    -0.222 NA
ATOM   1018  C5   DA A  49      95.830  80.840 210.500  1.00  0.00     0.149 A 
ATOM   1019  C2   DA A  49      94.084  78.862 210.709  1.00  0.00     0.237 A 
ATOM   1020  N1   DA A  49      94.198  79.452 209.511  1.00  0.00    -0.222 NA
ATOM   1021  C6   DA A  49      95.080  80.464 209.371  1.00  0.00     0.155 A 
ATOM   1022  N6   DA A  49      95.192  81.050 208.178  1.00  0.00    -0.382 N 
ATOM   1023  H62  DA A  49      94.624  80.738 207.403  1.00  0.00     0.157 HD
ATOM   1024  H61  DA A  49      95.846  81.808 208.051  1.00  0.00     0.157 HD
ATOM   1025  N7   DA A  49      96.799  81.814 210.696  1.00  0.00    -0.236 NA
ATOM   1026  O3'  DA A  49      99.706  79.186 215.483  1.00  0.00    -0.279 OA
ATOM   1027  P    DG A  50     101.053  78.612 214.814  1.00  0.00     0.408 P 
ATOM   1028  O5'  DG A  50     100.653  77.145 214.339  1.00  0.00    -0.287 OA
ATOM   1029  OP1  DG A  50     102.060  78.484 215.897  1.00  0.00    -0.624 OA
ATOM   1030  OP2  DG A  50     101.375  79.415 213.606  1.00  0.00    -0.624 OA
ATOM   1031  C5'  DG A  50     100.392  76.111 215.286  1.00  0.00     0.216 C 
ATOM   1032  C4'  DG A  50      99.441  75.094 214.700  1.00  0.00     0.180 C 
ATOM   1033  O4'  DG A  50      98.241  75.776 214.234  1.00  0.00    -0.353 OA
ATOM   1034  C3'  DG A  50      99.948  74.349 213.473  1.00  0.00     0.198 C 
ATOM   1035  C1'  DG A  50      97.812  75.204 213.010  1.00  0.00     0.262 C 
ATOM   1036  N9   DG A  50      97.964  76.200 211.956  1.00  0.00    -0.293 N 
ATOM   1037  C2'  DG A  50      98.650  73.948 212.785  1.00  0.00     0.199 C 
ATOM   1038  C4   DG A  50      97.138  76.383 210.873  1.00  0.00     0.187 A 
ATOM   1039  C8   DG A  50      98.961  77.138 211.843  1.00  0.00     0.214 A 
ATOM   1040  N3   DG A  50      96.028  75.668 210.591  1.00  0.00    -0.044 NA
ATOM   1041  C5   DG A  50      97.691  77.429 210.163  1.00  0.00     0.173 A 
ATOM   1042  C2   DG A  50      95.446  76.080 209.479  1.00  0.00     0.703 A 
ATOM   1043  N2   DG A  50      94.333  75.477 209.053  1.00  0.00    -0.233 N 
ATOM   1044  N1   DG A  50      95.913  77.110 208.703  1.00  0.00    -0.153 N 
ATOM   1045  H22  DG A  50      93.871  75.788 208.211  1.00  0.00     0.174 HD
ATOM   1046  H21  DG A  50      93.951  74.712 209.590  1.00  0.00     0.174 HD
ATOM   1047  H1   DG A  50      95.396  77.352 207.873  1.00  0.00     0.187 HD
ATOM   1048  C6   DG A  50      97.054  77.858 208.971  1.00  0.00     0.292 A 
ATOM   1049  O6   DG A  50      97.387  78.765 208.202  1.00  0.00    -0.265 OA
ATOM   1050  N7   DG A  50      98.840  77.894 210.788  1.00  0.00    -0.234 NA
ATOM   1051  O2'  DG A  50      98.032  72.860 213.449  1.00  0.00    -0.388 OA
ATOM   1052 2'HO  DG A  50      98.723  72.396 213.921  1.00  0.00     0.210 HD
ATOM   1053  O3'  DG A  50     100.753  73.227 213.825  1.00  0.00    -0.279 OA
ATOM   1054  P    DC A  51     101.895  72.716 212.814  1.00  0.00     0.408 P 
ATOM   1055  OP1  DC A  51     102.498  71.495 213.406  1.00  0.00    -0.624 OA
ATOM   1056  OP2  DC A  51     102.765  73.869 212.467  1.00  0.00    -0.624 OA
ATOM   1057  O5'  DC A  51     101.089  72.290 211.506  1.00  0.00    -0.287 OA
ATOM   1058  C5'  DC A  51     100.160  71.209 211.540  1.00  0.00     0.216 C 
ATOM   1059  C4'  DC A  51      99.272  71.240 210.317  1.00  0.00     0.180 C 
ATOM   1060  C3'  DC A  51      99.973  71.052 208.982  1.00  0.00     0.198 C 
ATOM   1061  O4'  DC A  51      98.665  72.549 210.180  1.00  0.00    -0.353 OA
ATOM   1062  C2'  DC A  51      98.954  71.626 208.002  1.00  0.00     0.199 C 
ATOM   1063  O3'  DC A  51     100.269  69.682 208.724  1.00  0.00    -0.279 OA
ATOM   1064  O2'  DC A  51      97.925  70.694 207.732  1.00  0.00    -0.388 OA
ATOM   1065  C1'  DC A  51      98.365  72.782 208.814  1.00  0.00     0.264 C 
ATOM   1066 2'HO  DC A  51      98.256  69.833 207.994  1.00  0.00     0.210 HD
ATOM   1067  N1   DC A  51      98.902  74.097 208.429  1.00  0.00    -0.278 N 
ATOM   1068  C6   DC A  51      99.742  74.789 209.258  1.00  0.00     0.102 A 
ATOM   1069  C2   DC A  51      98.542  74.630 207.189  1.00  0.00     0.352 A 
ATOM   1070  C5   DC A  51     100.232  75.984 208.903  1.00  0.00     0.067 A 
ATOM   1071  C4   DC A  51      99.850  76.498 207.631  1.00  0.00     0.128 A 
ATOM   1072  N4   DC A  51     100.305  77.680 207.220  1.00  0.00    -0.384 N 
ATOM   1073  N3   DC A  51      99.034  75.829 206.815  1.00  0.00    -0.177 NA
ATOM   1074  H42  DC A  51     100.020  78.042 206.321  1.00  0.00     0.157 HD
ATOM   1075  H41  DC A  51     100.923  78.217 207.810  1.00  0.00     0.157 HD
ATOM   1076  O2   DC A  51      97.774  73.986 206.459  1.00  0.00    -0.244 OA
ATOM   1077  P    DC A  52     101.442  69.299 207.692  1.00  0.00     0.408 P 
ATOM   1078  OP1  DC A  52     101.648  67.831 207.781  1.00  0.00    -0.624 OA
ATOM   1079  O5'  DC A  52     100.821  69.630 206.262  1.00  0.00    -0.287 OA
ATOM   1080  OP2  DC A  52     102.589  70.215 207.918  1.00  0.00    -0.624 OA
ATOM   1081  C5'  DC A  52      99.738  68.865 205.737  1.00  0.00     0.216 C 
ATOM   1082  C4'  DC A  52      99.598  69.106 204.253  1.00  0.00     0.180 C 
ATOM   1083  O4'  DC A  52      98.880  70.355 204.040  1.00  0.00    -0.353 OA
ATOM   1084  C3'  DC A  52     100.904  69.288 203.489  1.00  0.00     0.198 C 
ATOM   1085  C1'  DC A  52      99.475  71.074 202.971  1.00  0.00     0.264 C 
ATOM   1086  N1   DC A  52     100.106  72.286 203.520  1.00  0.00    -0.278 N 
ATOM   1087  C2'  DC A  52     100.460  70.122 202.296  1.00  0.00     0.199 C 
ATOM   1088  C2   DC A  52     100.284  73.393 202.687  1.00  0.00     0.352 A 
ATOM   1089  C6   DC A  52     100.513  72.332 204.825  1.00  0.00     0.102 A 
ATOM   1090  N3   DC A  52     100.856  74.512 203.188  1.00  0.00    -0.177 NA
ATOM   1091  O2   DC A  52      99.914  73.325 201.507  1.00  0.00    -0.244 OA
ATOM   1092  C4   DC A  52     101.242  74.549 204.464  1.00  0.00     0.128 A 
ATOM   1093  N4   DC A  52     101.791  75.675 204.915  1.00  0.00    -0.384 N 
ATOM   1094  C5   DC A  52     101.078  73.433 205.334  1.00  0.00     0.067 A 
ATOM   1095  H42  DC A  52     101.895  76.465 204.292  1.00  0.00     0.157 HD
ATOM   1096  H41  DC A  52     102.095  75.748 205.874  1.00  0.00     0.157 HD
ATOM   1097  O2'  DC A  52      99.759  69.335 201.351  1.00  0.00    -0.388 OA
ATOM   1098 2'HO  DC A  52     100.015  68.425 201.506  1.00  0.00     0.210 HD
ATOM   1099  O3'  DC A  52     101.477  68.042 203.102  1.00  0.00    -0.279 OA
ATOM   1100  P    DC A  53     103.055  67.948 202.807  1.00  0.00     0.408 P 
ATOM   1101  OP2  DC A  53     103.781  68.623 203.913  1.00  0.00    -0.624 OA
ATOM   1102  OP1  DC A  53     103.362  66.532 202.482  1.00  0.00    -0.624 OA
ATOM   1103  O5'  DC A  53     103.251  68.816 201.484  1.00  0.00    -0.287 OA
ATOM   1104  C5'  DC A  53     102.652  68.419 200.252  1.00  0.00     0.216 C 
ATOM   1105  C4'  DC A  53     102.846  69.488 199.202  1.00  0.00     0.180 C 
ATOM   1106  O4'  DC A  53     102.175  70.708 199.620  1.00  0.00    -0.353 OA
ATOM   1107  C3'  DC A  53     104.279  69.941 198.969  1.00  0.00     0.198 C 
ATOM   1108  C1'  DC A  53     102.886  71.831 199.123  1.00  0.00     0.264 C 
ATOM   1109  N1   DC A  53     103.282  72.678 200.260  1.00  0.00    -0.278 N 
ATOM   1110  C2'  DC A  53     104.075  71.303 198.320  1.00  0.00     0.199 C 
ATOM   1111  C6   DC A  53     103.348  72.169 201.528  1.00  0.00     0.102 A 
ATOM   1112  C2   DC A  53     103.597  74.018 200.024  1.00  0.00     0.352 A 
ATOM   1113  C5   DC A  53     103.707  72.936 202.564  1.00  0.00     0.067 A 
ATOM   1114  C4   DC A  53     104.024  74.298 202.291  1.00  0.00     0.128 A 
ATOM   1115  N3   DC A  53     103.966  74.804 201.059  1.00  0.00    -0.177 NA
ATOM   1116  N4   DC A  53     104.390  75.113 203.280  1.00  0.00    -0.384 N 
ATOM   1117  H41  DC A  53     104.447  74.772 204.229  1.00  0.00     0.157 HD
ATOM   1118  H42  DC A  53     104.610  76.078 203.075  1.00  0.00     0.157 HD
ATOM   1119  O2   DC A  53     103.530  74.457 198.867  1.00  0.00    -0.244 OA
ATOM   1120  O2'  DC A  53     103.685  71.172 196.965  1.00  0.00    -0.388 OA
ATOM   1121 2'HO  DC A  53     103.967  70.302 196.679  1.00  0.00     0.210 HD
ATOM   1122  O3'  DC A  53     104.998  69.039 198.133  1.00  0.00    -0.279 OA
ATOM   1123  P    DC A  54     106.605  69.001 198.198  1.00  0.00     0.408 P 
ATOM   1124  OP2  DC A  54     107.017  68.967 199.625  1.00  0.00    -0.624 OA
ATOM   1125  O5'  DC A  54     107.050  70.406 197.589  1.00  0.00    -0.287 OA
ATOM   1126  OP1  DC A  54     107.062  67.929 197.277  1.00  0.00    -0.624 OA
ATOM   1127  C5'  DC A  54     106.802  70.722 196.221  1.00  0.00     0.216 C 
ATOM   1128  C4'  DC A  54     107.271  72.127 195.914  1.00  0.00     0.180 C 
ATOM   1129  O4'  DC A  54     106.478  73.074 196.678  1.00  0.00    -0.353 OA
ATOM   1130  C3'  DC A  54     108.704  72.447 196.310  1.00  0.00     0.198 C 
ATOM   1131  C1'  DC A  54     107.279  74.189 197.029  1.00  0.00     0.264 C 
ATOM   1132  N1   DC A  54     107.277  74.323 198.495  1.00  0.00    -0.278 N 
ATOM   1133  C2'  DC A  54     108.673  73.965 196.439  1.00  0.00     0.199 C 
ATOM   1134  C6   DC A  54     107.024  73.247 199.299  1.00  0.00     0.102 A 
ATOM   1135  C2   DC A  54     107.541  75.574 199.057  1.00  0.00     0.352 A 
ATOM   1136  C5   DC A  54     107.018  73.366 200.632  1.00  0.00     0.067 A 
ATOM   1137  C4   DC A  54     107.289  74.655 201.176  1.00  0.00     0.128 A 
ATOM   1138  N4   DC A  54     107.297  74.838 202.495  1.00  0.00    -0.384 N 
ATOM   1139  N3   DC A  54     107.543  75.709 200.401  1.00  0.00    -0.177 NA
ATOM   1140  H41  DC A  54     107.111  74.068 203.121  1.00  0.00     0.157 HD
ATOM   1141  H42  DC A  54     107.488  75.760 202.866  1.00  0.00     0.157 HD
ATOM   1142  O2   DC A  54     107.767  76.536 198.307  1.00  0.00    -0.244 OA
ATOM   1143  O2'  DC A  54     108.730  74.587 195.169  1.00  0.00    -0.388 OA
ATOM   1144 2'HO  DC A  54     108.721  73.887 194.515  1.00  0.00     0.210 HD
ATOM   1145  O3'  DC A  54     109.636  72.003 195.328  1.00  0.00    -0.279 OA
ATOM   1146  P    DC A  55     111.175  71.769 195.733  1.00  0.00     0.408 P 
ATOM   1147  OP2  DC A  55     111.217  71.026 197.018  1.00  0.00    -0.624 OA
ATOM   1148  OP1  DC A  55     111.870  71.218 194.542  1.00  0.00    -0.624 OA
ATOM   1149  O5'  DC A  55     111.735  73.239 195.995  1.00  0.00    -0.287 OA
ATOM   1150  C5'  DC A  55     111.737  74.220 194.959  1.00  0.00     0.216 C 
ATOM   1151  C4'  DC A  55     112.345  75.509 195.462  1.00  0.00     0.180 C 
ATOM   1152  C3'  DC A  55     113.589  75.356 196.323  1.00  0.00     0.182 C 
ATOM   1153  O4'  DC A  55     111.390  76.174 196.330  1.00  0.00    -0.353 OA
ATOM   1154  C2'  DC A  55     113.580  76.639 197.146  1.00  0.00     0.198 C 
ATOM   1155  O3'  DC A  55     114.778  75.217 195.538  1.00  0.00    -0.390 OA
ATOM   1156  C1'  DC A  55     112.081  76.855 197.362  1.00  0.00     0.264 C 
ATOM   1157  O2'  DC A  55     114.092  77.729 196.399  1.00  0.00    -0.388 OA
ATOM   1158  N1   DC A  55     111.592  76.352 198.656  1.00  0.00    -0.278 N 
ATOM   1159  C2   DC A  55     111.474  77.246 199.724  1.00  0.00     0.352 A 
ATOM   1160  C6   DC A  55     111.257  75.037 198.817  1.00  0.00     0.102 A 
ATOM   1161  N3   DC A  55     111.023  76.796 200.916  1.00  0.00    -0.177 NA
ATOM   1162  O2   DC A  55     111.788  78.433 199.552  1.00  0.00    -0.244 OA
ATOM   1163  C4   DC A  55     110.697  75.511 201.063  1.00  0.00     0.128 A 
ATOM   1164  N4   DC A  55     110.256  75.116 202.256  1.00  0.00    -0.384 N 
ATOM   1165  C5   DC A  55     110.809  74.577 199.992  1.00  0.00     0.067 A 
ATOM   1166  H41  DC A  55     109.999  74.153 202.412  1.00  0.00     0.157 HD
ATOM   1167  H42  DC A  55     110.178  75.792 203.003  1.00  0.00     0.157 HD
ATOM   1168 2'HO  DC A  55     114.733  77.370 195.785  1.00  0.00     0.210 HD
ATOM   1169 3'HO  DC A  55     114.614  74.519 194.899  1.00  0.00     0.210 HD
ATOM   1170  O2'  DA A  44      88.724  89.447 203.286  1.00  0.00    -0.388 OA
ATOM   1171  C1'  DA A  44      88.107  90.408 201.183  1.00  0.00     0.262 C 
ATOM   1172 2'HO  DA A  44      88.232  88.781 203.766  1.00  0.00     0.210 HD
ATOM   1173  N9   DA A  44      87.702  91.678 200.582  1.00  0.00    -0.294 N 
ATOM   1174  C4   DA A  44      88.411  92.854 200.608  1.00  0.00     0.167 A 
ATOM   1175  C8   DA A  44      86.552  91.950 199.880  1.00  0.00     0.214 A 
ATOM   1176  N3   DA A  44      89.605  93.073 201.188  1.00  0.00    -0.222 NA
ATOM   1177  C5   DA A  44      87.647  93.771 199.911  1.00  0.00     0.149 A 
ATOM   1178  C2   DA A  44      89.988  94.335 201.009  1.00  0.00     0.237 A 
ATOM   1179  N1   DA A  44      89.362  95.327 200.362  1.00  0.00    -0.222 NA
ATOM   1180  C6   DA A  44      88.166  95.071 199.790  1.00  0.00     0.155 A 
ATOM   1181  N6   DA A  44      87.546  96.058 199.143  1.00  0.00    -0.382 N 
ATOM   1182  H61  DA A  44      86.651  95.890 198.705  1.00  0.00     0.157 HD
ATOM   1183  H62  DA A  44      87.972  96.971 199.083  1.00  0.00     0.157 HD
ATOM   1184  N7   DA A  44      86.473  93.187 199.455  1.00  0.00    -0.236 NA
ATOM   1185  O2'  DG A  43      86.460  88.142 197.434  1.00  0.00    -0.388 OA
ATOM   1186  C1'  DG A  43      86.741  89.997 195.947  1.00  0.00     0.262 C 
ATOM   1187 2'HO  DG A  43      85.736  87.766 197.935  1.00  0.00     0.210 HD
ATOM   1188  N9   DG A  43      87.157  91.397 195.951  1.00  0.00    -0.293 N 
ATOM   1189  C4   DG A  43      88.231  91.929 196.624  1.00  0.00     0.187 A 
ATOM   1190  C8   DG A  43      86.561  92.442 195.289  1.00  0.00     0.214 A 
ATOM   1191  N3   DG A  43      89.094  91.247 197.408  1.00  0.00    -0.044 NA
ATOM   1192  C5   DG A  43      88.223  93.274 196.322  1.00  0.00     0.173 A 
ATOM   1193  C2   DG A  43      90.023  92.036 197.918  1.00  0.00     0.703 A 
ATOM   1194  N1   DG A  43      90.104  93.383 197.681  1.00  0.00    -0.153 N 
ATOM   1195  N2   DG A  43      90.960  91.524 198.722  1.00  0.00    -0.233 N 
ATOM   1196  H1   DG A  43      90.855  93.891 198.123  1.00  0.00     0.187 HD
ATOM   1197  C6   DG A  43      89.229  94.106 196.878  1.00  0.00     0.292 A 
ATOM   1198  O6   DG A  43      89.395  95.321 196.728  1.00  0.00    -0.265 OA
ATOM   1199  H21  DG A  43      90.946  90.536 198.931  1.00  0.00     0.174 HD
ATOM   1200  H22  DG A  43      91.674  92.119 199.118  1.00  0.00     0.174 HD
ATOM   1201  N7   DG A  43      87.164  93.583 195.478  1.00  0.00    -0.234 NA
ATOM   1202  O2'  DA A  42      84.461  90.252 191.538  1.00  0.00    -0.388 OA
ATOM   1203  C1'  DA A  42      85.737  92.126 190.770  1.00  0.00     0.262 C 
ATOM   1204 2'HO  DA A  42      83.607  90.150 191.960  1.00  0.00     0.210 HD
ATOM   1205  N9   DA A  42      86.717  93.133 191.177  1.00  0.00    -0.294 N 
ATOM   1206  C4   DA A  42      87.805  92.936 191.995  1.00  0.00     0.167 A 
ATOM   1207  C8   DA A  42      86.745  94.463 190.833  1.00  0.00     0.214 A 
ATOM   1208  N3   DA A  42      88.190  91.788 192.578  1.00  0.00    -0.222 NA
ATOM   1209  C5   DA A  42      88.426  94.167 192.099  1.00  0.00     0.149 A 
ATOM   1210  C2   DA A  42      89.290  91.977 193.304  1.00  0.00     0.237 A 
ATOM   1211  N1   DA A  42      89.996  93.100 193.498  1.00  0.00    -0.222 NA
ATOM   1212  C6   DA A  42      89.581  94.235 192.896  1.00  0.00     0.155 A 
ATOM   1213  N6   DA A  42      90.282  95.352 193.087  1.00  0.00    -0.382 N 
ATOM   1214  H61  DA A  42      89.985  96.210 192.645  1.00  0.00     0.157 HD
ATOM   1215  H62  DA A  42      91.105  95.346 193.674  1.00  0.00     0.157 HD
ATOM   1216  N7   DA A  42      87.747  95.124 191.358  1.00  0.00    -0.236 NA
ATOM   1217  O2'  DA A  41      84.322  93.370 186.822  1.00  0.00    -0.388 OA
ATOM   1218  C1'  DA A  41      86.411  94.494 186.505  1.00  0.00     0.262 C 
ATOM   1219 2'HO  DA A  41      83.788  93.075 187.559  1.00  0.00     0.210 HD
ATOM   1220  N9   DA A  41      87.544  95.007 187.276  1.00  0.00    -0.294 N 
ATOM   1221  C8   DA A  41      87.940  96.314 187.419  1.00  0.00     0.214 A 
ATOM   1222  C4   DA A  41      88.436  94.261 188.007  1.00  0.00     0.167 A 
ATOM   1223  N7   DA A  41      89.004  96.463 188.171  1.00  0.00    -0.236 NA
ATOM   1224  C5   DA A  41      89.328  95.167 188.550  1.00  0.00     0.149 A 
ATOM   1225  C6   DA A  41      90.358  94.646 189.354  1.00  0.00     0.155 A 
ATOM   1226  N6   DA A  41      91.291  95.396 189.940  1.00  0.00    -0.382 N 
ATOM   1227  N1   DA A  41      90.398  93.308 189.534  1.00  0.00    -0.222 NA
ATOM   1228  H61  DA A  41      91.280  96.397 189.816  1.00  0.00     0.157 HD
ATOM   1229  H62  DA A  41      92.008  94.963 190.508  1.00  0.00     0.157 HD
ATOM   1230  C2   DA A  41      89.462  92.554 188.942  1.00  0.00     0.237 A 
ATOM   1231  N3   DA A  41      88.448  92.927 188.165  1.00  0.00    -0.222 NA
ATOM   1232  C1'  DT A  39      94.252 102.033 183.348  1.00  0.00     0.264 C 
ATOM   1233  O2'  DT A  39      92.162 102.695 182.385  1.00  0.00    -0.388 OA
ATOM   1234  N1   DT A  39      94.888 100.958 184.124  1.00  0.00    -0.280 N 
ATOM   1235  C2   DT A  39      94.612  99.652 183.764  1.00  0.00     0.331 A 
ATOM   1236  C6   DT A  39      95.728 101.240 185.178  1.00  0.00     0.104 A 
ATOM   1237  O2   DT A  39      93.881  99.361 182.835  1.00  0.00    -0.246 OA
ATOM   1238  N3   DT A  39      95.226  98.696 184.532  1.00  0.00    -0.275 N 
ATOM   1239  C4   DT A  39      96.071  98.906 185.597  1.00  0.00     0.250 A 
ATOM   1240  H3   DT A  39      95.029  97.735 184.294  1.00  0.00     0.173 HD
ATOM   1241  O4   DT A  39      96.547  97.939 186.191  1.00  0.00    -0.268 OA
ATOM   1242  C5   DT A  39      96.310 100.281 185.904  1.00  0.00     0.092 A 
ATOM   1243 2'HO  DT A  39      91.468 103.281 182.689  1.00  0.00     0.210 HD
ATOM   1244  O2'  DA A  37     103.980 106.395 184.603  1.00  0.00    -0.388 OA
ATOM   1245  C1'  DA A  37     104.215 104.094 183.991  1.00  0.00     0.262 C 
ATOM   1246 2'HO  DA A  37     104.057 106.756 185.487  1.00  0.00     0.210 HD
ATOM   1247  N9   DA A  37     103.456 102.930 183.536  1.00  0.00    -0.294 N 
ATOM   1248  C8   DA A  37     103.532 101.637 183.992  1.00  0.00     0.214 A 
ATOM   1249  C4   DA A  37     102.505 102.924 182.545  1.00  0.00     0.167 A 
ATOM   1250  N7   DA A  37     102.714 100.814 183.383  1.00  0.00    -0.236 NA
ATOM   1251  C5   DA A  37     102.056 101.619 182.463  1.00  0.00     0.149 A 
ATOM   1252  C6   DA A  37     101.062 101.347 181.507  1.00  0.00     0.155 A 
ATOM   1253  N1   DA A  37     100.621 102.374 180.750  1.00  0.00    -0.222 NA
ATOM   1254  N6   DA A  37     100.535 100.140 181.308  1.00  0.00    -0.382 N 
ATOM   1255  C2   DA A  37     101.152 103.588 180.944  1.00  0.00     0.237 A 
ATOM   1256  N3   DA A  37     102.091 103.968 181.807  1.00  0.00    -0.222 NA
ATOM   1257  H62  DA A  37      99.835 100.013 180.593  1.00  0.00     0.157 HD
ATOM   1258  H61  DA A  37     100.848  99.354 181.861  1.00  0.00     0.157 HD
ATOM   1259  O2'  DC A  36     107.405 100.838 188.585  1.00  0.00    -0.388 OA
ATOM   1260  C1'  DC A  36     107.081  98.879 189.919  1.00  0.00     0.264 C 
ATOM   1261 2'HO  DC A  36     106.711 101.426 188.884  1.00  0.00     0.210 HD
ATOM   1262  N1   DC A  36     108.368  98.180 190.050  1.00  0.00    -0.278 N 
ATOM   1263  C2   DC A  36     109.303  98.648 190.978  1.00  0.00     0.352 A 
ATOM   1264  C6   DC A  36     108.651  97.088 189.277  1.00  0.00     0.102 A 
ATOM   1265  O2   DC A  36     109.020  99.640 191.668  1.00  0.00    -0.244 OA
ATOM   1266  N3   DC A  36     110.488  98.011 191.100  1.00  0.00    -0.177 NA
ATOM   1267  C4   DC A  36     110.755  96.950 190.340  1.00  0.00     0.128 A 
ATOM   1268  C5   DC A  36     109.822  96.448 189.388  1.00  0.00     0.067 A 
ATOM   1269  N4   DC A  36     111.939  96.359 190.492  1.00  0.00    -0.384 N 
ATOM   1270  H42  DC A  36     112.588  96.725 191.174  1.00  0.00     0.157 HD
ATOM   1271  H41  DC A  36     112.186  95.554 189.935  1.00  0.00     0.157 HD
ATOM   1272  C1'  DA A  32      96.051  95.174 179.325  1.00  0.00     0.262 C 
ATOM   1273  O2'  DA A  32      96.132  96.427 177.288  1.00  0.00    -0.388 OA
ATOM   1274  N9   DA A  32      96.791  95.244 180.586  1.00  0.00    -0.294 N 
ATOM   1275  C4   DA A  32      97.188  96.397 181.221  1.00  0.00     0.167 A 
ATOM   1276  C8   DA A  32      97.233  94.210 181.373  1.00  0.00     0.214 A 
ATOM   1277  N3   DA A  32      96.978  97.661 180.819  1.00  0.00    -0.222 NA
ATOM   1278  C5   DA A  32      97.851  95.988 182.362  1.00  0.00     0.149 A 
ATOM   1279  C2   DA A  32      97.507  98.523 181.684  1.00  0.00     0.237 A 
ATOM   1280  N1   DA A  32      98.172  98.281 182.821  1.00  0.00    -0.222 NA
ATOM   1281  C6   DA A  32      98.365  96.999 183.197  1.00  0.00     0.155 A 
ATOM   1282  N6   DA A  32      99.025  96.761 184.330  1.00  0.00    -0.382 N 
ATOM   1283  H61  DA A  32      99.182  95.811 184.632  1.00  0.00     0.157 HD
ATOM   1284  H62  DA A  32      99.368  97.534 184.884  1.00  0.00     0.157 HD
ATOM   1285  N7   DA A  32      97.873  94.603 182.448  1.00  0.00    -0.236 NA
ATOM   1286 2'HO  DA A  32      96.115  96.037 176.413  1.00  0.00     0.210 HD
ENDBRANCH 698 701
ENDBRANCH 697 698
ENDBRANCH 657 697
ENDBRANCH 537 538
ENDBRANCH 536 537
ENDBRANCH 533 536
ENDBRANCH 532 533
ENDBRANCH 515 532
ENDBRANCH 510 511
ENDBRANCH 509 510
ENDBRANCH 506 509
ENDBRANCH 505 506
ENDBRANCH 490 505
ENDBRANCH 485 486
ENDBRANCH 484 485
ENDBRANCH 481 484
ENDBRANCH 480 481
ENDBRANCH 463 480
ENDBRANCH 458 459
ENDBRANCH 457 458
ENDBRANCH 454 457
ENDBRANCH 453 454
ENDBRANCH 438 453
ENDBRANCH 433 434
ENDBRANCH 432 433
ENDBRANCH 429 432
ENDBRANCH 428 429
ENDBRANCH 424 428
BRANCH 425 1287
ATOM   1287  O2'  DG A  20      77.821 106.056 195.694  1.00  0.00    -0.388 OA
ATOM   1288 2'HO  DG A  20      78.535 106.591 195.342  1.00  0.00     0.210 HD
ENDBRANCH 425 1287
BRANCH 426 1289
ATOM   1289  N9   DG A  20      79.990 103.471 194.284  1.00  0.00    -0.293 N 
ATOM   1290  C8   DG A  20      79.747 102.163 194.623  1.00  0.00     0.214 A 
ATOM   1291  N7   DG A  20      80.143 101.313 193.716  1.00  0.00    -0.234 NA
ATOM   1292  C5   DG A  20      80.686 102.110 192.716  1.00  0.00     0.173 A 
ATOM   1293  C6   DG A  20      81.276 101.756 191.473  1.00  0.00     0.292 A 
ATOM   1294  C4   DG A  20      80.602 103.444 193.054  1.00  0.00     0.187 A 
ATOM   1295  O6   DG A  20      81.441 100.630 190.990  1.00  0.00    -0.265 OA
ATOM   1296  N1   DG A  20      81.693 102.880 190.768  1.00  0.00    -0.153 N 
ATOM   1297  H1   DG A  20      82.122 102.727 189.869  1.00  0.00     0.187 HD
ATOM   1298  C2   DG A  20      81.564 104.174 191.199  1.00  0.00     0.703 A 
ATOM   1299  N3   DG A  20      81.016 104.519 192.351  1.00  0.00    -0.044 NA
BRANCH 1298 1300
ATOM   1300  N2   DG A  20      82.030 105.118 190.379  1.00  0.00    -0.233 N 
ATOM   1301  H22  DG A  20      82.556 105.898 190.747  1.00  0.00     0.174 HD
ATOM   1302  H21  DG A  20      81.865 105.035 189.386  1.00  0.00     0.174 HD
ENDBRANCH 1298 1300
ENDBRANCH 426 1289
ENDBRANCH 422 423
ENDBRANCH 421 422
ENDBRANCH 418 421
ENDBRANCH 417 418
ENDBRANCH 400 417
ENDBRANCH 395 396
ENDBRANCH 394 395
ENDBRANCH 391 394
ENDBRANCH 390 391
ENDBRANCH 373 390
ENDBRANCH 368 369
ENDBRANCH 367 368
ENDBRANCH 364 367
ENDBRANCH 363 364
ENDBRANCH 359 363
BRANCH 360 1303
ATOM   1303  O2'  DT A  17      77.698 100.667 192.133  1.00  0.00    -0.388 OA
ATOM   1304 2'HO  DT A  17      77.843 100.942 193.038  1.00  0.00     0.210 HD
ENDBRANCH 360 1303
BRANCH 361 1305
ATOM   1305  N1   DT A  17      75.789 102.980 191.011  1.00  0.00    -0.280 N 
ATOM   1306  C2   DT A  17      76.888 103.816 191.071  1.00  0.00     0.331 A 
ATOM   1307  N3   DT A  17      76.607 105.124 191.374  1.00  0.00    -0.275 N 
ATOM   1308  O2   DT A  17      78.026 103.431 190.870  1.00  0.00    -0.246 OA
ATOM   1309  H3   DT A  17      77.394 105.752 191.420  1.00  0.00     0.173 HD
ATOM   1310  C4   DT A  17      75.368 105.668 191.620  1.00  0.00     0.250 A 
ATOM   1311  O4   DT A  17      75.277 106.868 191.879  1.00  0.00    -0.268 OA
ATOM   1312  C5   DT A  17      74.283 104.741 191.541  1.00  0.00     0.092 A 
ATOM   1313  C6   DT A  17      74.520 103.459 191.246  1.00  0.00     0.104 A 
ENDBRANCH 361 1305
ENDBRANCH 357 358
ENDBRANCH 356 357
ENDBRANCH 353 356
ENDBRANCH 352 353
ENDBRANCH 348 352
BRANCH 349 1314
ATOM   1314  O2'  DT A  16      72.412  99.870 194.787  1.00  0.00    -0.388 OA
ATOM   1315 2'HO  DT A  16      72.128 100.771 194.942  1.00  0.00     0.210 HD
ENDBRANCH 349 1314
BRANCH 350 1316
ATOM   1316  N1   DT A  16      69.624  97.550 195.141  1.00  0.00    -0.280 N 
ATOM   1317  C6   DT A  16      68.385  97.540 194.540  1.00  0.00     0.104 A 
ATOM   1318  C5   DT A  16      67.713  96.410 194.308  1.00  0.00     0.092 A 
ATOM   1319  C4   DT A  16      68.274  95.153 194.688  1.00  0.00     0.250 A 
ATOM   1320  O4   DT A  16      67.760  94.049 194.515  1.00  0.00    -0.268 OA
ATOM   1321  N3   DT A  16      69.509  95.235 195.288  1.00  0.00    -0.275 N 
ATOM   1322  H3   DT A  16      69.926  94.363 195.578  1.00  0.00     0.173 HD
ATOM   1323  C2   DT A  16      70.230  96.373 195.542  1.00  0.00     0.331 A 
ATOM   1324  O2   DT A  16      71.322  96.339 196.081  1.00  0.00    -0.246 OA
ENDBRANCH 350 1316
ENDBRANCH 346 347
ENDBRANCH 345 346
ENDBRANCH 342 345
ENDBRANCH 341 342
ENDBRANCH 337 341
BRANCH 338 1325
ATOM   1325  O2'  DG A  15      70.680 103.520 196.316  1.00  0.00    -0.388 OA
ATOM   1326 2'HO  DG A  15      70.678 103.121 195.446  1.00  0.00     0.210 HD
ENDBRANCH 338 1325
BRANCH 339 1327
ATOM   1327  N9   DG A  15      70.594 101.279 199.164  1.00  0.00    -0.293 N 
ATOM   1328  C4   DG A  15      71.274 100.106 198.945  1.00  0.00     0.187 A 
ATOM   1329  C5   DG A  15      70.749  99.204 199.846  1.00  0.00     0.173 A 
ATOM   1330  N3   DG A  15      72.248  99.914 198.032  1.00  0.00    -0.044 NA
ATOM   1331  N7   DG A  15      69.757  99.797 200.617  1.00  0.00    -0.234 NA
ATOM   1332  C6   DG A  15      71.259  97.880 199.862  1.00  0.00     0.292 A 
ATOM   1333  C8   DG A  15      69.702 101.025 200.176  1.00  0.00     0.214 A 
ATOM   1334  O6   DG A  15      70.927  96.933 200.583  1.00  0.00    -0.265 OA
ATOM   1335  N1   DG A  15      72.259  97.705 198.912  1.00  0.00    -0.153 N 
ATOM   1336  H1   DG A  15      72.680  96.792 198.850  1.00  0.00     0.187 HD
ATOM   1337  C2   DG A  15      72.711  98.678 198.058  1.00  0.00     0.703 A 
BRANCH 1337 1338
ATOM   1338  N2   DG A  15      73.681  98.318 197.212  1.00  0.00    -0.233 N 
ATOM   1339  H22  DG A  15      73.599  98.504 196.224  1.00  0.00     0.174 HD
ATOM   1340  H21  DG A  15      74.502  97.855 197.576  1.00  0.00     0.174 HD
ENDBRANCH 1337 1338
ENDBRANCH 339 1327
ENDBRANCH 335 336
ENDBRANCH 334 335
ENDBRANCH 331 334
ENDBRANCH 330 331
ENDBRANCH 326 330
BRANCH 327 1341
ATOM   1341  O2'  DA A  14      70.888 106.655 203.915  1.00  0.00    -0.388 OA
ATOM   1342 2'HO  DA A  14      71.690 106.737 204.432  1.00  0.00     0.210 HD
ENDBRANCH 327 1341
BRANCH 328 1343
ATOM   1343  N9   DA A  14      69.971 109.536 205.981  1.00  0.00    -0.294 N 
ATOM   1344  C8   DA A  14      69.076 110.577 205.945  1.00  0.00     0.214 A 
ATOM   1345  N7   DA A  14      68.704 110.995 207.130  1.00  0.00    -0.236 NA
ATOM   1346  C5   DA A  14      69.400 110.173 208.006  1.00  0.00     0.149 A 
ATOM   1347  C4   DA A  14      70.184 109.270 207.312  1.00  0.00     0.167 A 
ATOM   1348  C6   DA A  14      69.442 110.106 209.411  1.00  0.00     0.155 A 
ATOM   1349  N3   DA A  14      70.985 108.328 207.838  1.00  0.00    -0.222 NA
ATOM   1350  C2   DA A  14      70.941 108.361 209.167  1.00  0.00     0.237 A 
ATOM   1351  N1   DA A  14      70.238 109.170 209.971  1.00  0.00    -0.222 NA
BRANCH 1348 1352
ATOM   1352  N6   DA A  14      68.744 110.910 210.213  1.00  0.00    -0.382 N 
ATOM   1353  H61  DA A  14      69.045 111.863 210.359  1.00  0.00     0.157 HD
ATOM   1354  H62  DA A  14      67.919 110.559 210.675  1.00  0.00     0.157 HD
ENDBRANCH 1348 1352
ENDBRANCH 328 1343
ENDBRANCH 324 325
ENDBRANCH 323 324
ENDBRANCH 320 323
ENDBRANCH 319 320
ENDBRANCH 318 319
BRANCH 317 1355
ATOM   1355  O2'  DC A  13      72.732 112.234 201.168  1.00  0.00    -0.388 OA
ATOM   1356 2'HO  DC A  13      72.417 111.410 200.795  1.00  0.00     0.210 HD
ENDBRANCH 317 1355
BRANCH 315 1357
ATOM   1357  N4   DC A  13      73.488 110.526 208.443  1.00  0.00    -0.384 N 
ATOM   1358  H41  DC A  13      73.230 111.080 209.248  1.00  0.00     0.157 HD
ATOM   1359  H42  DC A  13      73.736 109.553 208.554  1.00  0.00     0.157 HD
ENDBRANCH 315 1357
TORSDOF 427
ENDMDL
MODEL 3
REMARK VINA RESULT:      -7.9     21.100     38.610
REMARK WARNING: 32 MAX_TORS EXCEEDED!!!
REMARK  99 active torsions:
REMARK  status: ('A' for Active; 'I' for Inactive)
REMARK       I    between atoms: O5'_2  and  C5'_3 
REMARK       I    between atoms: C5'_3  and  C4'_4 
REMARK       I    between atoms: C1'_6  and  N9_7 
REMARK       I    between atoms: C2_10  and  N2_11 
REMARK       I    between atoms: C2'_21  and  O2'_22 
REMARK       I    between atoms: C3'_24  and  O3'_25 
REMARK       I    between atoms: O3'_25  and  P_26 
REMARK       I    between atoms: P_26  and  O5'_29 
REMARK       I    between atoms: O5'_29  and  C5'_30 
REMARK       I    between atoms: C5'_30  and  C4'_31 
REMARK       I    between atoms: C1'_33  and  N9_34 
REMARK       I    between atoms: C2_37  and  N2_38 
REMARK       I    between atoms: C2'_48  and  O2'_49 
REMARK       I    between atoms: C3'_51  and  O3'_52 
REMARK       I    between atoms: O3'_52  and  P_53 
REMARK       I    between atoms: P_53  and  O5'_56 
REMARK       I    between atoms: O5'_56  and  C5'_57 
REMARK       I    between atoms: C5'_57  and  C4'_58 
REMARK       I    between atoms: C1'_60  and  N9_61 
REMARK       I    between atoms: C2_64  and  N2_65 
REMARK       I    between atoms: C2'_75  and  O2'_76 
REMARK       I    between atoms: C3'_78  and  O3'_79 
REMARK       I    between atoms: O3'_79  and  P_80 
REMARK       I    between atoms: P_80  and  O5'_83 
REMARK       I    between atoms: O5'_83  and  C5'_84 
REMARK       I    between atoms: C5'_84  and  C4'_85 
REMARK       I    between atoms: C1'_87  and  N9_88 
REMARK       I    between atoms: C2_91  and  N2_92 
REMARK       I    between atoms: C2'_102  and  O2'_103 
REMARK       I    between atoms: C3'_105  and  O3'_106 
REMARK       I    between atoms: O3'_106  and  P_107 
REMARK       I    between atoms: P_107  and  O5'_110 
REMARK       I    between atoms: O5'_110  and  C5'_111 
REMARK       I    between atoms: C5'_111  and  C4'_112 
REMARK       I    between atoms: C1'_114  and  N9_115 
REMARK       I    between atoms: C2_118  and  N2_119 
REMARK       I    between atoms: C2'_129  and  O2'_130 
REMARK       I    between atoms: C3'_132  and  O3'_133 
REMARK       I    between atoms: O3'_133  and  P_134 
REMARK       I    between atoms: P_134  and  O5'_137 
REMARK       I    between atoms: O5'_137  and  C5'_138 
REMARK       I    between atoms: C5'_138  and  C4'_139 
REMARK       I    between atoms: C1'_141  and  N1_142 
REMARK       I    between atoms: C2'_151  and  O2'_152 
REMARK       I    between atoms: C3'_154  and  O3'_155 
REMARK       I    between atoms: O3'_155  and  P_156 
REMARK       I    between atoms: P_156  and  O5'_159 
REMARK       I    between atoms: O5'_159  and  C5'_160 
REMARK       I    between atoms: C5'_160  and  C4'_161 
REMARK       I    between atoms: C1'_163  and  N9_164 
REMARK       I    between atoms: C2_167  and  N2_168 
REMARK       I    between atoms: C2'_178  and  O2'_179 
REMARK       I    between atoms: C3'_181  and  O3'_182 
REMARK       I    between atoms: O3'_182  and  P_183 
REMARK       I    between atoms: P_183  and  O5'_186 
REMARK       I    between atoms: O5'_186  and  C5'_187 
REMARK       I    between atoms: C5'_187  and  C4'_188 
REMARK       I    between atoms: C1'_190  and  N1_191 
REMARK       I    between atoms: C2'_200  and  O2'_201 
REMARK       I    between atoms: C3'_203  and  O3'_204 
REMARK       I    between atoms: O3'_204  and  P_205 
REMARK       I    between atoms: P_205  and  O5'_208 
REMARK       I    between atoms: O5'_208  and  C5'_209 
REMARK       I    between atoms: C5'_209  and  C4'_210 
REMARK       I    between atoms: C1'_212  and  N9_213 
REMARK       I    between atoms: C6_218  and  N6_219 
REMARK       I    between atoms: C2'_225  and  O2'_226 
REMARK       I    between atoms: C3'_228  and  O3'_229 
REMARK       I    between atoms: O3'_229  and  P_230 
REMARK       I    between atoms: P_230  and  O5'_233 
REMARK       I    between atoms: O5'_233  and  C5'_234 
REMARK       I    between atoms: C5'_234  and  C4'_235 
REMARK       I    between atoms: C1'_237  and  N9_238 
REMARK       I    between atoms: C2_241  and  N2_242 
REMARK       I    between atoms: C2'_252  and  O2'_253 
REMARK       I    between atoms: C3'_255  and  O3'_256 
REMARK       I    between atoms: O3'_256  and  P_257 
REMARK       I    between atoms: P_257  and  O5'_260 
REMARK       I    between atoms: O5'_260  and  C5'_261 
REMARK       I    between atoms: C5'_261  and  C4'_262 
REMARK       I    between atoms: C1'_264  and  N1_265 
REMARK       I    between atoms: C4_270  and  N4_271 
REMARK       I    between atoms: C2'_275  and  O2'_276 
REMARK       I    between atoms: C3'_278  and  O3'_279 
REMARK       I    between atoms: O3'_279  and  P_280 
REMARK       I    between atoms: P_280  and  O5'_283 
REMARK       I    between atoms: O5'_283  and  C5'_284 
REMARK       I    between atoms: C5'_284  and  C4'_285 
REMARK       I    between atoms: C1'_287  and  N1_288 
REMARK       I    between atoms: C2'_297  and  O2'_298 
REMARK       I    between atoms: C3'_300  and  O3'_301 
REMARK       I    between atoms: O3'_301  and  P_302 
REMARK       I    between atoms: P_302  and  O5'_305 
REMARK       I    between atoms: O5'_305  and  C5'_306 
REMARK       I    between atoms: C5'_306  and  C4'_307 
REMARK       I    between atoms: C1'_309  and  N1_310 
REMARK    1  A    between atoms: C4_315  and  N4_316 
REMARK    2  A    between atoms: C2'_320  and  O2'_321 
REMARK    3  A    between atoms: C3'_323  and  O3'_324 
REMARK    4  A    between atoms: O3'_324  and  P_325 
REMARK    5  A    between atoms: P_325  and  O5'_328 
REMARK    6  A    between atoms: O5'_328  and  C5'_329 
REMARK    7  A    between atoms: C5'_329  and  C4'_330 
REMARK    8  A    between atoms: C1'_332  and  N9_333 
REMARK    9  A    between atoms: C6_338  and  N6_339 
REMARK   10  A    between atoms: C2'_345  and  O2'_346 
REMARK   11  A    between atoms: C3'_348  and  O3'_349 
REMARK   12  A    between atoms: O3'_349  and  P_350 
REMARK   13  A    between atoms: P_350  and  O5'_353 
REMARK   14  A    between atoms: O5'_353  and  C5'_354 
REMARK   15  A    between atoms: C5'_354  and  C4'_355 
REMARK   16  A    between atoms: C1'_357  and  N9_358 
REMARK   17  A    between atoms: C2_361  and  N2_362 
REMARK   18  A    between atoms: C2'_372  and  O2'_373 
REMARK   19  A    between atoms: C3'_375  and  O3'_376 
REMARK   20  A    between atoms: O3'_376  and  P_377 
REMARK   21  A    between atoms: P_377  and  O5'_380 
REMARK   22  A    between atoms: O5'_380  and  C5'_381 
REMARK   23  A    between atoms: C5'_381  and  C4'_382 
REMARK   24  A    between atoms: C1'_384  and  N1_385 
REMARK   25  A    between atoms: C2'_394  and  O2'_395 
REMARK   26  A    between atoms: C3'_397  and  O3'_398 
REMARK   27  A    between atoms: O3'_398  and  P_399 
REMARK   28  A    between atoms: P_399  and  O5'_402 
REMARK   29  A    between atoms: O5'_402  and  C5'_403 
REMARK   30  A    between atoms: C5'_403  and  C4'_404 
REMARK   31  A    between atoms: C1'_406  and  N1_407 
REMARK   32  A    between atoms: C2'_416  and  O2'_417 
REMARK   33  A    between atoms: C3'_419  and  O3'_420 
REMARK   34  A    between atoms: O3'_420  and  P_421 
REMARK   35  A    between atoms: P_421  and  O5'_424 
REMARK   36  A    between atoms: O5'_424  and  C5'_425 
REMARK   37  A    between atoms: C5'_425  and  C4'_426 
REMARK   38  A    between atoms: C1'_428  and  N9_429 
REMARK   39  A    between atoms: C2_432  and  N2_433 
REMARK   40  A    between atoms: C2'_443  and  O2'_444 
REMARK   41  A    between atoms: C3'_446  and  O3'_447 
REMARK   42  A    between atoms: O3'_447  and  P_448 
REMARK   43  A    between atoms: P_448  and  O5'_451 
REMARK   44  A    between atoms: O5'_451  and  C5'_452 
REMARK   45  A    between atoms: C5'_452  and  C4'_453 
REMARK   46  A    between atoms: C1'_455  and  N9_456 
REMARK   47  A    between atoms: C2_459  and  N2_460 
REMARK   48  A    between atoms: C2'_470  and  O2'_471 
REMARK   49  A    between atoms: C3'_473  and  O3'_474 
REMARK   50  A    between atoms: O3'_474  and  P_475 
REMARK   51  A    between atoms: P_475  and  O5'_478 
REMARK   52  A    between atoms: O5'_478  and  C5'_479 
REMARK   53  A    between atoms: C5'_479  and  C4'_480 
REMARK   54  A    between atoms: C1'_482  and  N9_483 
REMARK   55  A    between atoms: C2_486  and  N2_487 
REMARK   56  A    between atoms: C2'_497  and  O2'_498 
REMARK   57  A    between atoms: C3'_500  and  O3'_501 
REMARK   58  A    between atoms: O3'_501  and  P_502 
REMARK   59  A    between atoms: P_502  and  O5'_505 
REMARK   60  A    between atoms: O5'_505  and  C5'_506 
REMARK   61  A    between atoms: C5'_506  and  C4'_507 
REMARK   62  A    between atoms: C1'_509  and  N9_510 
REMARK   63  A    between atoms: C6_515  and  N6_516 
REMARK   64  A    between atoms: C2'_522  and  O2'_523 
REMARK   65  A    between atoms: C3'_525  and  O3'_526 
REMARK   66  A    between atoms: O3'_526  and  P_527 
REMARK   67  A    between atoms: P_527  and  O5'_530 
REMARK   68  A    between atoms: O5'_530  and  C5'_531 
REMARK   69  A    between atoms: C5'_531  and  C4'_532 
REMARK   70  A    between atoms: C1'_534  and  N9_535 
REMARK   71  A    between atoms: C2_538  and  N2_539 
REMARK   72  A    between atoms: C2'_549  and  O2'_550 
REMARK   73  A    between atoms: C3'_552  and  O3'_553 
REMARK   74  A    between atoms: O3'_553  and  P_554 
REMARK   75  A    between atoms: P_554  and  O5'_557 
REMARK   76  A    between atoms: O5'_557  and  C5'_558 
REMARK   77  A    between atoms: C5'_558  and  C4'_559 
REMARK   78  A    between atoms: C1'_561  and  N9_562 
REMARK   79  A    between atoms: C6_567  and  N6_568 
REMARK   80  A    between atoms: C2'_574  and  O2'_575 
REMARK   81  A    between atoms: C3'_577  and  O3'_578 
REMARK   82  A    between atoms: O3'_578  and  P_579 
REMARK   83  A    between atoms: P_579  and  O5'_582 
REMARK   84  A    between atoms: O5'_582  and  C5'_583 
REMARK   85  A    between atoms: C5'_583  and  C4'_584 
REMARK   86  A    between atoms: C1'_586  and  N9_587 
REMARK   87  A    between atoms: C2_590  and  N2_591 
REMARK   88  A    between atoms: C2'_601  and  O2'_602 
REMARK   89  A    between atoms: C3'_604  and  O3'_605 
REMARK   90  A    between atoms: O3'_605  and  P_606 
REMARK   91  A    between atoms: P_606  and  O5'_609 
REMARK   92  A    between atoms: O5'_609  and  C5'_610 
REMARK   93  A    between atoms: C5'_610  and  C4'_611 
REMARK   94  A    between atoms: C1'_613  and  N1_614 
REMARK       I    between atoms: C4_619  and  N4_620 
REMARK       I    between atoms: C2'_624  and  O2'_625 
REMARK       I    between atoms: C3'_627  and  O3'_628 
REMARK       I    between atoms: O3'_628  and  P_629 
REMARK       I    between atoms: P_629  and  O5'_632 
REMARK       I    between atoms: O5'_632  and  C5'_633 
REMARK       I    between atoms: C5'_633  and  C4'_634 
REMARK       I    between atoms: C1'_636  and  N9_637 
REMARK       I    between atoms: C2_640  and  N2_641 
REMARK       I    between atoms: C2'_651  and  O2'_652 
REMARK       I    between atoms: C3'_654  and  O3'_655 
REMARK       I    between atoms: O3'_655  and  P_656 
REMARK       I    between atoms: P_656  and  O5'_659 
REMARK       I    between atoms: O5'_659  and  C5'_660 
REMARK       I    between atoms: C5'_660  and  C4'_661 
REMARK       I    between atoms: C1'_663  and  N1_664 
REMARK       I    between atoms: C4_669  and  N4_670 
REMARK       I    between atoms: C2'_674  and  O2'_675 
REMARK       I    between atoms: C3'_677  and  O3'_678 
REMARK       I    between atoms: O3'_678  and  P_679 
REMARK       I    between atoms: P_679  and  O5'_682 
REMARK       I    between atoms: O5'_682  and  C5'_683 
REMARK       I    between atoms: C5'_683  and  C4'_684 
REMARK       I    between atoms: C1'_686  and  N1_687 
REMARK       I    between atoms: C2'_696  and  O2'_697 
REMARK       I    between atoms: C3'_699  and  O3'_700 
REMARK       I    between atoms: O3'_700  and  P_701 
REMARK       I    between atoms: P_701  and  O5'_704 
REMARK       I    between atoms: O5'_704  and  C5'_705 
REMARK       I    between atoms: C5'_705  and  C4'_706 
REMARK       I    between atoms: C1'_708  and  N1_709 
REMARK       I    between atoms: C2'_718  and  O2'_719 
REMARK       I    between atoms: C3'_721  and  O3'_722 
REMARK       I    between atoms: O3'_722  and  P_723 
REMARK       I    between atoms: P_723  and  O5'_726 
REMARK       I    between atoms: O5'_726  and  C5'_727 
REMARK       I    between atoms: C5'_727  and  C4'_728 
REMARK       I    between atoms: C1'_730  and  N1_731 
REMARK       I    between atoms: C4_736  and  N4_737 
REMARK       I    between atoms: C2'_741  and  O2'_742 
REMARK       I    between atoms: C3'_744  and  O3'_745 
REMARK       I    between atoms: O3'_745  and  P_746 
REMARK       I    between atoms: P_746  and  O5'_749 
REMARK       I    between atoms: O5'_749  and  C5'_750 
REMARK       I    between atoms: C5'_750  and  C4'_751 
REMARK       I    between atoms: C1'_753  and  N9_754 
REMARK   95  A    between atoms: C6_759  and  N6_760 
REMARK   96  A    between atoms: C2'_766  and  O2'_767 
REMARK   97  A    between atoms: C3'_769  and  O3'_770 
REMARK   98  A    between atoms: O3'_770  and  P_771 
REMARK   99  A    between atoms: P_771  and  O5'_774 
REMARK       I    between atoms: O5'_774  and  C5'_775 
REMARK       I    between atoms: C5'_775  and  C4'_776 
REMARK       I    between atoms: C1'_778  and  N9_779 
REMARK       I    between atoms: C6_784  and  N6_785 
REMARK       I    between atoms: C2'_791  and  O2'_792 
REMARK       I    between atoms: C3'_794  and  O3'_795 
REMARK       I    between atoms: O3'_795  and  P_796 
REMARK       I    between atoms: P_796  and  O5'_799 
REMARK       I    between atoms: O5'_799  and  C5'_800 
REMARK       I    between atoms: C5'_800  and  C4'_801 
REMARK       I    between atoms: C1'_803  and  N1_804 
REMARK       I    between atoms: C2'_813  and  O2'_814 
REMARK       I    between atoms: C3'_816  and  O3'_817 
REMARK       I    between atoms: O3'_817  and  P_818 
REMARK       I    between atoms: P_818  and  O5'_821 
REMARK       I    between atoms: O5'_821  and  C5'_822 
REMARK       I    between atoms: C5'_822  and  C4'_823 
REMARK       I    between atoms: C1'_825  and  N9_826 
REMARK       I    between atoms: C2_829  and  N2_830 
REMARK       I    between atoms: C2'_840  and  O2'_841 
REMARK       I    between atoms: C3'_843  and  O3'_844 
REMARK       I    between atoms: O3'_844  and  P_845 
REMARK       I    between atoms: P_845  and  O5'_848 
REMARK       I    between atoms: O5'_848  and  C5'_849 
REMARK       I    between atoms: C5'_849  and  C4'_850 
REMARK       I    between atoms: C1'_852  and  N9_853 
REMARK       I    between atoms: C2_856  and  N2_857 
REMARK       I    between atoms: C2'_867  and  O2'_868 
REMARK       I    between atoms: C3'_870  and  O3'_871 
REMARK       I    between atoms: O3'_871  and  P_872 
REMARK       I    between atoms: P_872  and  O5'_875 
REMARK       I    between atoms: O5'_875  and  C5'_876 
REMARK       I    between atoms: C5'_876  and  C4'_877 
REMARK       I    between atoms: C1'_879  and  N1_880 
REMARK       I    between atoms: C4_885  and  N4_886 
REMARK       I    between atoms: C2'_890  and  O2'_891 
REMARK       I    between atoms: C3'_893  and  O3'_894 
REMARK       I    between atoms: O3'_894  and  P_895 
REMARK       I    between atoms: P_895  and  O5'_898 
REMARK       I    between atoms: O5'_898  and  C5'_899 
REMARK       I    between atoms: C5'_899  and  C4'_900 
REMARK       I    between atoms: C1'_902  and  N9_903 
REMARK       I    between atoms: C6_908  and  N6_909 
REMARK       I    between atoms: C2'_915  and  O2'_916 
REMARK       I    between atoms: C3'_918  and  O3'_919 
REMARK       I    between atoms: O3'_919  and  P_920 
REMARK       I    between atoms: P_920  and  O5'_923 
REMARK       I    between atoms: O5'_923  and  C5'_924 
REMARK       I    between atoms: C5'_924  and  C4'_925 
REMARK       I    between atoms: C1'_927  and  N1_928 
REMARK       I    between atoms: C2'_937  and  O2'_938 
REMARK       I    between atoms: C3'_940  and  O3'_941 
REMARK       I    between atoms: O3'_941  and  P_942 
REMARK       I    between atoms: P_942  and  O5'_945 
REMARK       I    between atoms: O5'_945  and  C5'_946 
REMARK       I    between atoms: C5'_946  and  C4'_947 
REMARK       I    between atoms: C1'_949  and  N1_950 
REMARK       I    between atoms: C2'_959  and  O2'_960 
REMARK       I    between atoms: C3'_962  and  O3'_963 
REMARK       I    between atoms: O3'_963  and  P_964 
REMARK       I    between atoms: P_964  and  O5'_967 
REMARK       I    between atoms: O5'_967  and  C5'_968 
REMARK       I    between atoms: C5'_968  and  C4'_969 
REMARK       I    between atoms: C1'_971  and  N9_972 
REMARK       I    between atoms: C2_975  and  N2_976 
REMARK       I    between atoms: C2'_986  and  O2'_987 
REMARK       I    between atoms: C3'_989  and  O3'_990 
REMARK       I    between atoms: O3'_990  and  P_991 
REMARK       I    between atoms: P_991  and  O5'_994 
REMARK       I    between atoms: O5'_994  and  C5'_995 
REMARK       I    between atoms: C5'_995  and  C4'_996 
REMARK       I    between atoms: C1'_998  and  N9_999 
REMARK       I    between atoms: C6_1004  and  N6_1005 
REMARK       I    between atoms: C2'_1011  and  O2'_1012 
REMARK       I    between atoms: C3'_1014  and  O3'_1015 
REMARK       I    between atoms: O3'_1015  and  P_1016 
REMARK       I    between atoms: P_1016  and  O5'_1019 
REMARK       I    between atoms: O5'_1019  and  C5'_1020 
REMARK       I    between atoms: C5'_1020  and  C4'_1021 
REMARK       I    between atoms: C1'_1023  and  N9_1024 
REMARK       I    between atoms: C6_1029  and  N6_1030 
REMARK       I    between atoms: C2'_1036  and  O2'_1037 
REMARK       I    between atoms: C3'_1039  and  O3'_1040 
REMARK       I    between atoms: O3'_1040  and  P_1041 
REMARK       I    between atoms: P_1041  and  O5'_1044 
REMARK       I    between atoms: O5'_1044  and  C5'_1045 
REMARK       I    between atoms: C5'_1045  and  C4'_1046 
REMARK       I    between atoms: C1'_1048  and  N9_1049 
REMARK       I    between atoms: C2_1052  and  N2_1053 
REMARK       I    between atoms: C2'_1063  and  O2'_1064 
REMARK       I    between atoms: C3'_1066  and  O3'_1067 
REMARK       I    between atoms: O3'_1067  and  P_1068 
REMARK       I    between atoms: P_1068  and  O5'_1071 
REMARK       I    between atoms: O5'_1071  and  C5'_1072 
REMARK       I    between atoms: C5'_1072  and  C4'_1073 
REMARK       I    between atoms: C1'_1075  and  N9_1076 
REMARK       I    between atoms: C6_1081  and  N6_1082 
REMARK       I    between atoms: C2'_1088  and  O2'_1089 
REMARK       I    between atoms: C3'_1091  and  O3'_1092 
REMARK       I    between atoms: O3'_1092  and  P_1093 
REMARK       I    between atoms: P_1093  and  O5'_1096 
REMARK       I    between atoms: O5'_1096  and  C5'_1097 
REMARK       I    between atoms: C5'_1097  and  C4'_1098 
REMARK       I    between atoms: C1'_1100  and  N9_1101 
REMARK       I    between atoms: C2_1104  and  N2_1105 
REMARK       I    between atoms: C2'_1115  and  O2'_1116 
REMARK       I    between atoms: C3'_1118  and  O3'_1119 
REMARK       I    between atoms: O3'_1119  and  P_1120 
REMARK       I    between atoms: P_1120  and  O5'_1123 
REMARK       I    between atoms: O5'_1123  and  C5'_1124 
REMARK       I    between atoms: C5'_1124  and  C4'_1125 
REMARK       I    between atoms: C1'_1127  and  N9_1128 
REMARK       I    between atoms: C2_1131  and  N2_1132 
REMARK       I    between atoms: C2'_1142  and  O2'_1143 
REMARK       I    between atoms: C3'_1145  and  O3'_1146 
REMARK       I    between atoms: O3'_1146  and  P_1147 
REMARK       I    between atoms: P_1147  and  O5'_1150 
REMARK       I    between atoms: O5'_1150  and  C5'_1151 
REMARK       I    between atoms: C5'_1151  and  C4'_1152 
REMARK       I    between atoms: C1'_1154  and  N1_1155 
REMARK       I    between atoms: C2'_1164  and  O2'_1165 
REMARK       I    between atoms: C3'_1167  and  O3'_1168 
REMARK       I    between atoms: O3'_1168  and  P_1169 
REMARK       I    between atoms: P_1169  and  O5'_1172 
REMARK       I    between atoms: O5'_1172  and  C5'_1173 
REMARK       I    between atoms: C5'_1173  and  C4'_1174 
REMARK       I    between atoms: C1'_1176  and  N1_1177 
REMARK       I    between atoms: C4_1182  and  N4_1183 
REMARK       I    between atoms: C2'_1187  and  O2'_1188 
REMARK       I    between atoms: C3'_1190  and  O3'_1191 
REMARK       I    between atoms: O3'_1191  and  P_1192 
REMARK       I    between atoms: P_1192  and  O5'_1195 
REMARK       I    between atoms: O5'_1195  and  C5'_1196 
REMARK       I    between atoms: C5'_1196  and  C4'_1197 
REMARK       I    between atoms: C1'_1199  and  N9_1200 
REMARK       I    between atoms: C6_1205  and  N6_1206 
REMARK       I    between atoms: C2'_1212  and  O2'_1213 
REMARK       I    between atoms: C3'_1215  and  O3'_1216 
REMARK       I    between atoms: O3'_1216  and  P_1217 
REMARK       I    between atoms: P_1217  and  O5'_1220 
REMARK       I    between atoms: O5'_1220  and  C5'_1221 
REMARK       I    between atoms: C5'_1221  and  C4'_1222 
REMARK       I    between atoms: C1'_1224  and  N9_1225 
REMARK       I    between atoms: C2_1228  and  N2_1229 
REMARK       I    between atoms: C2'_1239  and  O2'_1240 
REMARK       I    between atoms: C3'_1242  and  O3'_1243 
REMARK       I    between atoms: O3'_1243  and  P_1244 
REMARK       I    between atoms: P_1244  and  O5'_1247 
REMARK       I    between atoms: O5'_1247  and  C5'_1248 
REMARK       I    between atoms: C5'_1248  and  C4'_1249 
REMARK       I    between atoms: C1'_1251  and  N1_1252 
REMARK       I    between atoms: C4_1257  and  N4_1258 
REMARK       I    between atoms: C2'_1262  and  O2'_1263 
REMARK       I    between atoms: C3'_1265  and  O3'_1266 
REMARK       I    between atoms: O3'_1266  and  P_1267 
REMARK       I    between atoms: P_1267  and  O5'_1270 
REMARK       I    between atoms: O5'_1270  and  C5'_1271 
REMARK       I    between atoms: C5'_1271  and  C4'_1272 
REMARK       I    between atoms: C1'_1274  and  N1_1275 
REMARK       I    between atoms: C4_1280  and  N4_1281 
REMARK       I    between atoms: C2'_1285  and  O2'_1286 
REMARK       I    between atoms: C3'_1288  and  O3'_1289 
REMARK       I    between atoms: O3'_1289  and  P_1290 
REMARK       I    between atoms: P_1290  and  O5'_1293 
REMARK       I    between atoms: O5'_1293  and  C5'_1294 
REMARK       I    between atoms: C5'_1294  and  C4'_1295 
REMARK       I    between atoms: C1'_1297  and  N1_1298 
REMARK       I    between atoms: C4_1303  and  N4_1304 
REMARK       I    between atoms: C2'_1308  and  O2'_1309 
REMARK       I    between atoms: C3'_1311  and  O3'_1312 
REMARK       I    between atoms: O3'_1312  and  P_1313 
REMARK       I    between atoms: P_1313  and  O5'_1316 
REMARK       I    between atoms: O5'_1316  and  C5'_1317 
REMARK       I    between atoms: C5'_1317  and  C4'_1318 
REMARK       I    between atoms: C1'_1320  and  N1_1321 
REMARK       I    between atoms: C4_1326  and  N4_1327 
REMARK       I    between atoms: C2'_1331  and  O2'_1332 
REMARK       I    between atoms: C3'_1334  and  O3'_1335 
REMARK       I    between atoms: O3'_1335  and  P_1336 
REMARK       I    between atoms: P_1336  and  O5'_1339 
REMARK       I    between atoms: O5'_1339  and  C5'_1340 
REMARK       I    between atoms: C5'_1340  and  C4'_1341 
REMARK       I    between atoms: C1'_1343  and  N1_1344 
REMARK       I    between atoms: C4_1349  and  N4_1350 
REMARK       I    between atoms: C2'_1354  and  O2'_1355 
REMARK       I    between atoms: C3'_1357  and  O3'_1358 
ROOT
ATOM      1 5'HO  DG A   1      90.919 156.211 162.415  1.00  0.00     0.209 HD
ATOM      2  O5'  DG A   1      90.052 155.798 162.425  1.00  0.00    -0.398 OA
ATOM      3  C5'  DG A   1      89.852 155.212 161.135  1.00  0.00     0.198 C 
ATOM      4  C4'  DG A   1      91.139 155.201 160.344  1.00  0.00     0.180 C 
ATOM      5  O4'  DG A   1      91.490 156.572 160.008  1.00  0.00    -0.353 OA
ATOM      6  C1'  DG A   1      92.877 156.777 160.214  1.00  0.00     0.262 C 
ATOM      7  N9   DG A   1      93.043 157.692 161.341  1.00  0.00    -0.293 N 
ATOM      8  C4   DG A   1      94.233 158.150 161.853  1.00  0.00     0.187 A 
ATOM      9  N3   DG A   1      95.465 157.832 161.403  1.00  0.00    -0.044 NA
ATOM     10  C2   DG A   1      96.413 158.433 162.099  1.00  0.00     0.703 A 
ATOM     11  N2   DG A   1      97.695 158.231 161.784  1.00  0.00    -0.233 N 
ATOM     12  H21  DG A   1      97.925 157.619 161.016  1.00  0.00     0.174 HD
ATOM     13  H22  DG A   1      98.427 158.689 162.311  1.00  0.00     0.174 HD
ATOM     14  N1   DG A   1      96.176 159.276 163.153  1.00  0.00    -0.153 N 
ATOM     15  H1   DG A   1      96.973 159.682 163.617  1.00  0.00     0.187 HD
ATOM     16  C6   DG A   1      94.918 159.617 163.637  1.00  0.00     0.292 A 
ATOM     17  O6   DG A   1      94.817 160.391 164.597  1.00  0.00    -0.265 OA
ATOM     18  C5   DG A   1      93.886 158.980 162.899  1.00  0.00     0.173 A 
ATOM     19  N7   DG A   1      92.506 159.043 163.041  1.00  0.00    -0.234 NA
ATOM     20  C8   DG A   1      92.051 158.265 162.098  1.00  0.00     0.214 A 
ATOM     21  C2'  DG A   1      93.508 155.404 160.435  1.00  0.00     0.199 C 
ATOM     22  O2'  DG A   1      93.837 154.846 159.176  1.00  0.00    -0.388 OA
ATOM     23 2'HO  DG A   1      93.899 153.899 159.302  1.00  0.00     0.210 HD
ATOM     24  C3'  DG A   1      92.353 154.653 161.085  1.00  0.00     0.198 C 
ATOM     25  O3'  DG A   1      92.464 153.241 160.928  1.00  0.00    -0.279 OA
ATOM     26  P    DG A   2      93.072 152.349 162.122  1.00  0.00     0.408 P 
ATOM     27  OP1  DG A   2      92.978 150.929 161.697  1.00  0.00    -0.624 OA
ATOM     28  OP2  DG A   2      92.438 152.776 163.395  1.00  0.00    -0.624 OA
ATOM     29  O5'  DG A   2      94.611 152.758 162.164  1.00  0.00    -0.287 OA
ATOM     30  C5'  DG A   2      95.486 152.444 161.083  1.00  0.00     0.216 C 
ATOM     31  C4'  DG A   2      96.921 152.706 161.477  1.00  0.00     0.180 C 
ATOM     32  O4'  DG A   2      97.162 154.140 161.468  1.00  0.00    -0.353 OA
ATOM     33  C1'  DG A   2      98.045 154.481 162.524  1.00  0.00     0.262 C 
ATOM     34  N9   DG A   2      97.348 155.379 163.438  1.00  0.00    -0.293 N 
ATOM     35  C4   DG A   2      97.927 156.214 164.364  1.00  0.00     0.187 A 
ATOM     36  N3   DG A   2      99.250 156.353 164.588  1.00  0.00    -0.044 NA
ATOM     37  C2   DG A   2      99.500 157.229 165.543  1.00  0.00     0.703 A 
ATOM     38  N2   DG A   2     100.762 157.486 165.895  1.00  0.00    -0.233 N 
ATOM     39  H21  DG A   2     101.514 157.005 165.423  1.00  0.00     0.174 HD
ATOM     40  H22  DG A   2     100.963 158.153 166.627  1.00  0.00     0.174 HD
ATOM     41  N1   DG A   2      98.530 157.918 166.226  1.00  0.00    -0.153 N 
ATOM     42  H1   DG A   2      98.830 158.563 166.940  1.00  0.00     0.187 HD
ATOM     43  C6   DG A   2      97.163 157.795 166.012  1.00  0.00     0.292 A 
ATOM     44  O6   DG A   2      96.374 158.470 166.685  1.00  0.00    -0.265 OA
ATOM     45  C5   DG A   2      96.876 156.854 164.989  1.00  0.00     0.173 A 
ATOM     46  N7   DG A   2      95.661 156.432 164.466  1.00  0.00    -0.234 NA
ATOM     47  C8   DG A   2      95.991 155.560 163.553  1.00  0.00     0.214 A 
ATOM     48  C2'  DG A   2      98.497 153.177 163.181  1.00  0.00     0.199 C 
ATOM     49  O2'  DG A   2      99.667 152.720 162.528  1.00  0.00    -0.388 OA
ATOM     50 2'HO  DG A   2     100.144 152.185 163.162  1.00  0.00     0.210 HD
ATOM     51  C3'  DG A   2      97.306 152.275 162.885  1.00  0.00     0.198 C 
ATOM     52  O3'  DG A   2      97.638 150.891 162.944  1.00  0.00    -0.279 OA
ATOM     53  P    DG A   3      97.536 150.106 164.343  1.00  0.00     0.408 P 
ATOM     54  OP1  DG A   3      97.969 148.707 164.097  1.00  0.00    -0.624 OA
ATOM     55  OP2  DG A   3      96.196 150.364 164.930  1.00  0.00    -0.624 OA
ATOM     56  O5'  DG A   3      98.629 150.811 165.264  1.00  0.00    -0.287 OA
ATOM     57  C5'  DG A   3     100.001 150.426 165.199  1.00  0.00     0.216 C 
ATOM     58  C4'  DG A   3     100.869 151.446 165.903  1.00  0.00     0.180 C 
ATOM     59  O4'  DG A   3     100.334 152.776 165.688  1.00  0.00    -0.353 OA
ATOM     60  C1'  DG A   3     100.704 153.609 166.773  1.00  0.00     0.262 C 
ATOM     61  N9   DG A   3      99.511 154.289 167.268  1.00  0.00    -0.293 N 
ATOM     62  C4   DG A   3      99.470 155.238 168.261  1.00  0.00     0.187 A 
ATOM     63  N3   DG A   3     100.530 155.707 168.952  1.00  0.00    -0.044 NA
ATOM     64  C2   DG A   3     100.174 156.612 169.846  1.00  0.00     0.703 A 
ATOM     65  N2   DG A   3     101.100 157.177 170.624  1.00  0.00    -0.233 N 
ATOM     66  H21  DG A   3     102.066 156.903 170.519  1.00  0.00     0.174 HD
ATOM     67  H22  DG A   3     100.839 157.867 171.316  1.00  0.00     0.174 HD
ATOM     68  N1   DG A   3      98.883 157.031 170.043  1.00  0.00    -0.153 N 
ATOM     69  H1   DG A   3      98.723 157.729 170.752  1.00  0.00     0.187 HD
ATOM     70  C6   DG A   3      97.776 156.567 169.341  1.00  0.00     0.292 A 
ATOM     71  O6   DG A   3      96.654 157.017 169.598  1.00  0.00    -0.265 OA
ATOM     72  C5   DG A   3      98.142 155.588 168.380  1.00  0.00     0.173 A 
ATOM     73  N7   DG A   3      97.362 154.871 167.481  1.00  0.00    -0.234 NA
ATOM     74  C8   DG A   3      98.215 154.115 166.846  1.00  0.00     0.214 A 
ATOM     75  C2'  DG A   3     101.388 152.734 167.827  1.00  0.00     0.199 C 
ATOM     76  O2'  DG A   3     102.790 152.870 167.682  1.00  0.00    -0.388 OA
ATOM     77 2'HO  DG A   3     103.160 151.991 167.766  1.00  0.00     0.210 HD
ATOM     78  C3'  DG A   3     100.926 151.338 167.419  1.00  0.00     0.198 C 
ATOM     79  O3'  DG A   3     101.832 150.322 167.843  1.00  0.00    -0.279 OA
ATOM     80  P    DG A   4     101.646 149.636 169.287  1.00  0.00     0.408 P 
ATOM     81  OP1  DG A   4     102.826 148.761 169.512  1.00  0.00    -0.624 OA
ATOM     82  OP2  DG A   4     100.281 149.058 169.359  1.00  0.00    -0.624 OA
ATOM     83  O5'  DG A   4     101.730 150.855 170.312  1.00  0.00    -0.287 OA
ATOM     84  C5'  DG A   4     102.950 151.572 170.503  1.00  0.00     0.216 C 
ATOM     85  C4'  DG A   4     102.854 152.451 171.729  1.00  0.00     0.180 C 
ATOM     86  O4'  DG A   4     102.112 153.653 171.400  1.00  0.00    -0.353 OA
ATOM     87  C1'  DG A   4     101.443 154.123 172.557  1.00  0.00     0.262 C 
ATOM     88  N9   DG A   4     100.027 154.282 172.242  1.00  0.00    -0.293 N 
ATOM     89  C4   DG A   4      99.145 155.129 172.868  1.00  0.00     0.187 A 
ATOM     90  N3   DG A   4      99.438 155.967 173.883  1.00  0.00    -0.044 NA
ATOM     91  C2   DG A   4      98.381 156.653 174.276  1.00  0.00     0.703 A 
ATOM     92  N2   DG A   4      98.500 157.537 175.269  1.00  0.00    -0.233 N 
ATOM     93  H21  DG A   4      99.399 157.668 175.707  1.00  0.00     0.174 HD
ATOM     94  H22  DG A   4      97.700 158.071 175.580  1.00  0.00     0.174 HD
ATOM     95  N1   DG A   4      97.133 156.527 173.721  1.00  0.00    -0.153 N 
ATOM     96  H1   DG A   4      96.388 157.092 174.098  1.00  0.00     0.187 HD
ATOM     97  C6   DG A   4      96.806 155.672 172.675  1.00  0.00     0.292 A 
ATOM     98  O6   DG A   4      95.647 155.640 172.248  1.00  0.00    -0.265 OA
ATOM     99  C5   DG A   4      97.935 154.927 172.239  1.00  0.00     0.173 A 
ATOM    100  N7   DG A   4      98.053 153.975 171.235  1.00  0.00    -0.234 NA
ATOM    101  C8   DG A   4      99.309 153.623 171.274  1.00  0.00     0.214 A 
ATOM    102  C2'  DG A   4     101.705 153.126 173.689  1.00  0.00     0.199 C 
ATOM    103  O2'  DG A   4     102.791 153.601 174.463  1.00  0.00    -0.388 OA
ATOM    104 2'HO  DG A   4     102.843 153.050 175.244  1.00  0.00     0.210 HD
ATOM    105  C3'  DG A   4     102.086 151.873 172.908  1.00  0.00     0.198 C 
ATOM    106  O3'  DG A   4     102.888 150.974 173.672  1.00  0.00    -0.279 OA
ATOM    107  P    DG A   5     102.203 149.716 174.408  1.00  0.00     0.408 P 
ATOM    108  OP1  DG A   5     103.252 148.675 174.556  1.00  0.00    -0.624 OA
ATOM    109  OP2  DG A   5     100.935 149.383 173.712  1.00  0.00    -0.624 OA
ATOM    110  O5'  DG A   5     101.840 150.266 175.862  1.00  0.00    -0.287 OA
ATOM    111  C5'  DG A   5     102.807 150.267 176.912  1.00  0.00     0.216 C 
ATOM    112  C4'  DG A   5     102.612 151.475 177.802  1.00  0.00     0.180 C 
ATOM    113  O4'  DG A   5     102.106 152.578 177.003  1.00  0.00    -0.353 OA
ATOM    114  C1'  DG A   5     101.207 153.354 177.776  1.00  0.00     0.262 C 
ATOM    115  N9   DG A   5      99.906 153.353 177.115  1.00  0.00    -0.293 N 
ATOM    116  C4   DG A   5      98.943 154.330 177.207  1.00  0.00     0.187 A 
ATOM    117  N3   DG A   5      99.033 155.468 177.928  1.00  0.00    -0.044 NA
ATOM    118  C2   DG A   5      97.947 156.209 177.816  1.00  0.00     0.703 A 
ATOM    119  N2   DG A   5      97.867 157.374 178.466  1.00  0.00    -0.233 N 
ATOM    120  H21  DG A   5      98.643 157.676 179.037  1.00  0.00     0.174 HD
ATOM    121  H22  DG A   5      97.044 157.953 178.382  1.00  0.00     0.174 HD
ATOM    122  N1   DG A   5      96.857 155.865 177.061  1.00  0.00    -0.153 N 
ATOM    123  H1   DG A   5      96.080 156.509 177.044  1.00  0.00     0.187 HD
ATOM    124  C6   DG A   5      96.738 154.700 176.313  1.00  0.00     0.292 A 
ATOM    125  O6   DG A   5      95.706 154.488 175.668  1.00  0.00    -0.265 OA
ATOM    126  C5   DG A   5      97.900 153.890 176.421  1.00  0.00     0.173 A 
ATOM    127  N7   DG A   5      98.199 152.662 175.845  1.00  0.00    -0.234 NA
ATOM    128  C8   DG A   5      99.396 152.385 176.285  1.00  0.00     0.214 A 
ATOM    129  C2'  DG A   5     101.171 152.760 179.186  1.00  0.00     0.199 C 
ATOM    130  O2'  DG A   5     102.133 153.423 179.983  1.00  0.00    -0.388 OA
ATOM    131 2'HO  DG A   5     102.606 152.744 180.462  1.00  0.00     0.210 HD
ATOM    132  C3'  DG A   5     101.582 151.318 178.913  1.00  0.00     0.198 C 
ATOM    133  O3'  DG A   5     102.137 150.690 180.066  1.00  0.00    -0.279 OA
ATOM    134  P    DT A   6     101.180 149.874 181.071  1.00  0.00     0.408 P 
ATOM    135  OP1  DT A   6     101.943 149.652 182.326  1.00  0.00    -0.624 OA
ATOM    136  OP2  DT A   6     100.621 148.712 180.337  1.00  0.00    -0.624 OA
ATOM    137  O5'  DT A   6      99.989 150.887 181.382  1.00  0.00    -0.287 OA
ATOM    138  C5'  DT A   6     100.187 152.023 182.222  1.00  0.00     0.216 C 
ATOM    139  C4'  DT A   6      98.856 152.610 182.632  1.00  0.00     0.180 C 
ATOM    140  O4'  DT A   6      98.282 153.337 181.513  1.00  0.00    -0.353 OA
ATOM    141  C1'  DT A   6      96.868 153.247 181.566  1.00  0.00     0.264 C 
ATOM    142  N1   DT A   6      96.388 152.657 180.307  1.00  0.00    -0.280 N 
ATOM    143  C6   DT A   6      97.218 151.907 179.503  1.00  0.00     0.104 A 
ATOM    144  C2   DT A   6      95.069 152.879 179.958  1.00  0.00     0.331 A 
ATOM    145  O2   DT A   6      94.305 153.538 180.639  1.00  0.00    -0.246 OA
ATOM    146  N3   DT A   6      94.675 152.302 178.779  1.00  0.00    -0.275 N 
ATOM    147  H3   DT A   6      93.710 152.431 178.515  1.00  0.00     0.173 HD
ATOM    148  C4   DT A   6      95.447 151.545 177.929  1.00  0.00     0.250 A 
ATOM    149  O4   DT A   6      94.947 151.101 176.896  1.00  0.00    -0.268 OA
ATOM    150  C5   DT A   6      96.799 151.361 178.357  1.00  0.00     0.092 A 
ATOM    151  C2'  DT A   6      96.503 152.423 182.802  1.00  0.00     0.199 C 
ATOM    152  O2'  DT A   6      96.288 153.308 183.886  1.00  0.00    -0.388 OA
ATOM    153 2'HO  DT A   6      95.699 152.861 184.496  1.00  0.00     0.210 HD
ATOM    154  C3'  DT A   6      97.773 151.606 182.995  1.00  0.00     0.198 C 
ATOM    155  O3'  DT A   6      97.921 151.124 184.328  1.00  0.00    -0.279 OA
ATOM    156  P    DG A   7      97.347 149.674 184.720  1.00  0.00     0.408 P 
ATOM    157  OP1  DG A   7      97.815 149.373 186.098  1.00  0.00    -0.624 OA
ATOM    158  OP2  DG A   7      97.657 148.729 183.618  1.00  0.00    -0.624 OA
ATOM    159  O5'  DG A   7      95.768 149.883 184.767  1.00  0.00    -0.287 OA
ATOM    160  C5'  DG A   7      95.158 150.631 185.817  1.00  0.00     0.216 C 
ATOM    161  C4'  DG A   7      93.691 150.853 185.521  1.00  0.00     0.180 C 
ATOM    162  O4'  DG A   7      93.544 151.491 184.227  1.00  0.00    -0.353 OA
ATOM    163  C1'  DG A   7      92.284 151.142 183.677  1.00  0.00     0.262 C 
ATOM    164  N9   DG A   7      92.492 150.649 182.319  1.00  0.00    -0.293 N 
ATOM    165  C4   DG A   7      91.540 150.558 181.331  1.00  0.00     0.187 A 
ATOM    166  N3   DG A   7      90.243 150.912 181.444  1.00  0.00    -0.044 NA
ATOM    167  C2   DG A   7      89.576 150.708 180.322  1.00  0.00     0.703 A 
ATOM    168  N2   DG A   7      88.277 151.007 180.259  1.00  0.00    -0.233 N 
ATOM    169  H21  DG A   7      87.815 151.387 181.072  1.00  0.00     0.174 HD
ATOM    170  H22  DG A   7      87.755 150.845 179.408  1.00  0.00     0.174 HD
ATOM    171  N1   DG A   7      90.135 150.197 179.179  1.00  0.00    -0.153 N 
ATOM    172  H1   DG A   7      89.532 150.081 178.378  1.00  0.00     0.187 HD
ATOM    173  C6   DG A   7      91.466 149.824 179.038  1.00  0.00     0.292 A 
ATOM    174  O6   DG A   7      91.865 149.370 177.960  1.00  0.00    -0.265 OA
ATOM    175  C5   DG A   7      92.197 150.039 180.236  1.00  0.00     0.173 A 
ATOM    176  N7   DG A   7      93.536 149.807 180.528  1.00  0.00    -0.234 NA
ATOM    177  C8   DG A   7      93.661 150.182 181.772  1.00  0.00     0.214 A 
ATOM    178  C2'  DG A   7      91.636 150.110 184.604  1.00  0.00     0.199 C 
ATOM    179  O2'  DG A   7      90.722 150.778 185.454  1.00  0.00    -0.388 OA
ATOM    180 2'HO  DG A   7      90.147 150.106 185.821  1.00  0.00     0.210 HD
ATOM    181  C3'  DG A   7      92.843 149.600 185.385  1.00  0.00     0.198 C 
ATOM    182  O3'  DG A   7      92.480 149.062 186.655  1.00  0.00    -0.279 OA
ATOM    183  P    DT A   8      92.030 147.522 186.772  1.00  0.00     0.408 P 
ATOM    184  OP1  DT A   8      91.553 147.304 188.161  1.00  0.00    -0.624 OA
ATOM    185  OP2  DT A   8      93.123 146.674 186.229  1.00  0.00    -0.624 OA
ATOM    186  O5'  DT A   8      90.781 147.408 185.787  1.00  0.00    -0.287 OA
ATOM    187  C5'  DT A   8      89.443 147.430 186.285  1.00  0.00     0.216 C 
ATOM    188  C4'  DT A   8      88.497 147.962 185.231  1.00  0.00     0.180 C 
ATOM    189  O4'  DT A   8      89.262 148.569 184.156  1.00  0.00    -0.353 OA
ATOM    190  C1'  DT A   8      88.590 148.376 182.924  1.00  0.00     0.264 C 
ATOM    191  N1   DT A   8      89.502 147.688 181.998  1.00  0.00    -0.280 N 
ATOM    192  C6   DT A   8      90.693 147.150 182.434  1.00  0.00     0.104 A 
ATOM    193  C2   DT A   8      89.125 147.597 180.671  1.00  0.00     0.331 A 
ATOM    194  O2   DT A   8      88.081 148.056 180.245  1.00  0.00    -0.246 OA
ATOM    195  N3   DT A   8      90.017 146.949 179.857  1.00  0.00    -0.275 N 
ATOM    196  H3   DT A   8      89.759 146.870 178.886  1.00  0.00     0.173 HD
ATOM    197  C4   DT A   8      91.221 146.394 180.223  1.00  0.00     0.250 A 
ATOM    198  O4   DT A   8      91.915 145.844 179.368  1.00  0.00    -0.268 OA
ATOM    199  C5   DT A   8      91.540 146.526 181.610  1.00  0.00     0.092 A 
ATOM    200  C2'  DT A   8      87.301 147.602 183.208  1.00  0.00     0.199 C 
ATOM    201  O2'  DT A   8      86.245 148.529 183.371  1.00  0.00    -0.388 OA
ATOM    202 2'HO  DT A   8      85.943 148.447 184.276  1.00  0.00     0.210 HD
ATOM    203  C3'  DT A   8      87.643 146.916 184.528  1.00  0.00     0.198 C 
ATOM    204  O3'  DT A   8      86.486 146.593 185.296  1.00  0.00    -0.279 OA
ATOM    205  P    DA A   9      85.533 145.376 184.842  1.00  0.00     0.408 P 
ATOM    206  OP1  DA A   9      85.583 145.294 183.360  1.00  0.00    -0.624 OA
ATOM    207  OP2  DA A   9      84.224 145.556 185.520  1.00  0.00    -0.624 OA
ATOM    208  O5'  DA A   9      86.232 144.084 185.460  1.00  0.00    -0.287 OA
ATOM    209  C5'  DA A   9      87.221 143.353 184.732  1.00  0.00     0.216 C 
ATOM    210  C4'  DA A   9      86.561 142.360 183.804  1.00  0.00     0.180 C 
ATOM    211  O4'  DA A   9      86.439 142.976 182.493  1.00  0.00    -0.353 OA
ATOM    212  C1'  DA A   9      86.869 142.075 181.494  1.00  0.00     0.262 C 
ATOM    213  N9   DA A   9      88.126 142.576 180.936  1.00  0.00    -0.294 N 
ATOM    214  C4   DA A   9      89.397 142.152 181.250  1.00  0.00     0.167 A 
ATOM    215  N3   DA A   9      89.745 141.199 182.129  1.00  0.00    -0.222 NA
ATOM    216  C2   DA A   9      91.066 141.057 182.172  1.00  0.00     0.237 A 
ATOM    217  N1   DA A   9      92.010 141.710 181.484  1.00  0.00    -0.222 NA
ATOM    218  C6   DA A   9      91.627 142.661 180.606  1.00  0.00     0.155 A 
ATOM    219  N6   DA A   9      92.569 143.308 179.920  1.00  0.00    -0.382 N 
ATOM    220  H61  DA A   9      92.310 144.024 179.256  1.00  0.00     0.157 HD
ATOM    221  H62  DA A   9      93.538 143.069 180.065  1.00  0.00     0.157 HD
ATOM    222  C5   DA A   9      90.250 142.911 180.471  1.00  0.00     0.149 A 
ATOM    223  N7   DA A   9      89.535 143.800 179.679  1.00  0.00    -0.236 NA
ATOM    224  C8   DA A   9      88.284 143.564 179.995  1.00  0.00     0.214 A 
ATOM    225  C2'  DA A   9      86.971 140.696 182.143  1.00  0.00     0.199 C 
ATOM    226  O2'  DA A   9      85.701 140.076 182.077  1.00  0.00    -0.388 OA
ATOM    227 2'HO  DA A   9      85.747 139.277 182.603  1.00  0.00     0.210 HD
ATOM    228  C3'  DA A   9      87.338 141.067 183.575  1.00  0.00     0.198 C 
ATOM    229  O3'  DA A   9      86.959 140.055 184.507  1.00  0.00    -0.279 OA
ATOM    230  P    DG A  10      87.970 138.845 184.835  1.00  0.00     0.408 P 
ATOM    231  OP1  DG A  10      89.200 139.030 184.021  1.00  0.00    -0.624 OA
ATOM    232  OP2  DG A  10      88.080 138.724 186.311  1.00  0.00    -0.624 OA
ATOM    233  O5'  DG A  10      87.218 137.550 184.287  1.00  0.00    -0.287 OA
ATOM    234  C5'  DG A  10      85.938 137.170 184.793  1.00  0.00     0.216 C 
ATOM    235  C4'  DG A  10      84.994 136.864 183.652  1.00  0.00     0.180 C 
ATOM    236  O4'  DG A  10      85.548 137.395 182.418  1.00  0.00    -0.353 OA
ATOM    237  C1'  DG A  10      85.278 136.505 181.348  1.00  0.00     0.262 C 
ATOM    238  N9   DG A  10      86.551 136.021 180.819  1.00  0.00    -0.293 N 
ATOM    239  C4   DG A  10      86.721 135.196 179.734  1.00  0.00     0.187 A 
ATOM    240  N3   DG A  10      85.737 134.685 178.965  1.00  0.00    -0.044 NA
ATOM    241  C2   DG A  10      86.214 133.926 177.995  1.00  0.00     0.703 A 
ATOM    242  N2   DG A  10      85.373 133.338 177.140  1.00  0.00    -0.233 N 
ATOM    243  H21  DG A  10      84.380 133.481 177.247  1.00  0.00     0.174 HD
ATOM    244  H22  DG A  10      85.726 132.760 176.388  1.00  0.00     0.174 HD
ATOM    245  N1   DG A  10      87.548 133.686 177.791  1.00  0.00    -0.153 N 
ATOM    246  H1   DG A  10      87.806 133.094 177.018  1.00  0.00     0.187 HD
ATOM    247  C6   DG A  10      88.580 134.200 178.569  1.00  0.00     0.292 A 
ATOM    248  O6   DG A  10      89.752 133.916 178.297  1.00  0.00    -0.265 OA
ATOM    249  C5   DG A  10      88.084 135.019 179.618  1.00  0.00     0.173 A 
ATOM    250  N7   DG A  10      88.758 135.717 180.613  1.00  0.00    -0.234 NA
ATOM    251  C8   DG A  10      87.809 136.294 181.298  1.00  0.00     0.214 A 
ATOM    252  C2'  DG A  10      84.379 135.394 181.890  1.00  0.00     0.199 C 
ATOM    253  O2'  DG A  10      83.028 135.782 181.724  1.00  0.00    -0.388 OA
ATOM    254 2'HO  DG A  10      82.636 135.803 182.597  1.00  0.00     0.210 HD
ATOM    255  C3'  DG A  10      84.773 135.385 183.363  1.00  0.00     0.198 C 
ATOM    256  O3'  DG A  10      83.751 134.836 184.193  1.00  0.00    -0.279 OA
ATOM    257  P    DC A  11      83.921 133.355 184.799  1.00  0.00     0.408 P 
ATOM    258  OP1  DC A  11      82.844 133.165 185.803  1.00  0.00    -0.624 OA
ATOM    259  OP2  DC A  11      85.339 133.171 185.201  1.00  0.00    -0.624 OA
ATOM    260  O5'  DC A  11      83.627 132.392 183.563  1.00  0.00    -0.287 OA
ATOM    261  C5'  DC A  11      82.318 132.294 183.001  1.00  0.00     0.216 C 
ATOM    262  C4'  DC A  11      82.288 131.226 181.932  1.00  0.00     0.180 C 
ATOM    263  O4'  DC A  11      82.970 131.731 180.751  1.00  0.00    -0.353 OA
ATOM    264  C1'  DC A  11      83.809 130.724 180.215  1.00  0.00     0.264 C 
ATOM    265  N1   DC A  11      85.211 131.131 180.408  1.00  0.00    -0.278 N 
ATOM    266  C6   DC A  11      85.544 132.067 181.348  1.00  0.00     0.102 A 
ATOM    267  C2   DC A  11      86.199 130.548 179.613  1.00  0.00     0.352 A 
ATOM    268  O2   DC A  11      85.873 129.697 178.774  1.00  0.00    -0.244 OA
ATOM    269  N3   DC A  11      87.487 130.923 179.779  1.00  0.00    -0.177 NA
ATOM    270  C4   DC A  11      87.801 131.840 180.694  1.00  0.00     0.128 A 
ATOM    271  N4   DC A  11      89.083 132.181 180.819  1.00  0.00    -0.384 N 
ATOM    272  H41  DC A  11      89.364 132.872 181.499  1.00  0.00     0.157 HD
ATOM    273  H42  DC A  11      89.776 131.747 180.224  1.00  0.00     0.157 HD
ATOM    274  C5   DC A  11      86.815 132.449 181.522  1.00  0.00     0.067 A 
ATOM    275  C2'  DC A  11      83.447 129.415 180.914  1.00  0.00     0.199 C 
ATOM    276  O2'  DC A  11      82.369 128.815 180.219  1.00  0.00    -0.388 OA
ATOM    277 2'HO  DC A  11      81.682 128.647 180.865  1.00  0.00     0.210 HD
ATOM    278  C3'  DC A  11      83.008 129.927 182.280  1.00  0.00     0.198 C 
ATOM    279  O3'  DC A  11      82.149 129.009 182.949  1.00  0.00    -0.279 OA
ATOM    280  P    DT A  12      82.781 127.826 183.838  1.00  0.00     0.408 P 
ATOM    281  OP1  DT A  12      81.652 127.062 184.427  1.00  0.00    -0.624 OA
ATOM    282  OP2  DT A  12      83.816 128.411 184.729  1.00  0.00    -0.624 OA
ATOM    283  O5'  DT A  12      83.516 126.891 182.776  1.00  0.00    -0.287 OA
ATOM    284  C5'  DT A  12      82.774 126.171 181.792  1.00  0.00     0.216 C 
ATOM    285  C4'  DT A  12      83.657 125.142 181.124  1.00  0.00     0.180 C 
ATOM    286  O4'  DT A  12      84.498 125.809 180.144  1.00  0.00    -0.353 OA
ATOM    287  C1'  DT A  12      85.799 125.245 180.163  1.00  0.00     0.264 C 
ATOM    288  N1   DT A  12      86.746 126.282 180.598  1.00  0.00    -0.280 N 
ATOM    289  C6   DT A  12      86.379 127.246 181.508  1.00  0.00     0.104 A 
ATOM    290  C2   DT A  12      88.020 126.260 180.059  1.00  0.00     0.331 A 
ATOM    291  O2   DT A  12      88.383 125.427 179.249  1.00  0.00    -0.246 OA
ATOM    292  N3   DT A  12      88.854 127.251 180.505  1.00  0.00    -0.275 N 
ATOM    293  H3   DT A  12      89.791 127.247 180.128  1.00  0.00     0.173 HD
ATOM    294  C4   DT A  12      88.553 128.243 181.410  1.00  0.00     0.250 A 
ATOM    295  O4   DT A  12      89.415 129.067 181.714  1.00  0.00    -0.268 OA
ATOM    296  C5   DT A  12      87.218 128.200 181.918  1.00  0.00     0.092 A 
ATOM    297  C2'  DT A  12      85.755 124.027 181.087  1.00  0.00     0.199 C 
ATOM    298  O2'  DT A  12      85.402 122.891 180.321  1.00  0.00    -0.388 OA
ATOM    299 2'HO  DT A  12      84.997 122.266 180.922  1.00  0.00     0.210 HD
ATOM    300  C3'  DT A  12      84.635 124.422 182.042  1.00  0.00     0.198 C 
ATOM    301  O3'  DT A  12      84.033 123.294 182.672  1.00  0.00    -0.279 OA
ATOM    302  P    DC A  13      84.698 122.668 183.995  1.00  0.00     0.408 P 
ATOM    303  OP1  DC A  13      83.775 121.618 184.495  1.00  0.00    -0.624 OA
ATOM    304  OP2  DC A  13      85.094 123.785 184.893  1.00  0.00    -0.624 OA
ATOM    305  O5'  DC A  13      86.017 121.951 183.458  1.00  0.00    -0.287 OA
ATOM    306  C5'  DC A  13      87.307 122.300 183.960  1.00  0.00     0.216 C 
ATOM    307  C4'  DC A  13      88.336 122.205 182.859  1.00  0.00     0.180 C 
ATOM    308  O4'  DC A  13      88.381 123.474 182.150  1.00  0.00    -0.353 OA
ATOM    309  C1'  DC A  13      89.726 123.827 181.880  1.00  0.00     0.264 C 
ATOM    310  N1   DC A  13      90.056 125.033 182.659  1.00  0.00    -0.278 N 
ATOM    311  C6   DC A  13      89.150 125.579 183.525  1.00  0.00     0.102 A 
ATOM    312  C2   DC A  13      91.320 125.614 182.503  1.00  0.00     0.352 A 
ATOM    313  O2   DC A  13      92.124 125.104 181.709  1.00  0.00    -0.244 OA
ATOM    314  N3   DC A  13      91.634 126.714 183.221  1.00  0.00    -0.177 NA
ATOM    315  C4   DC A  13      90.742 127.237 184.063  1.00  0.00     0.128 A 
ATOM    316  C5   DC A  13      89.447 126.670 184.242  1.00  0.00     0.067 A 
ATOM    317  C2'  DC A  13      90.592 122.616 182.222  1.00  0.00     0.199 C 
ATOM    318  C3'  DC A  13      89.766 121.966 183.327  1.00  0.00     0.198 C 
ENDROOT
BRANCH 318 319
ATOM    319  O3'  DC A  13      90.047 120.576 183.466  1.00  0.00    -0.279 OA
BRANCH 319 320
ATOM    320  P    DA A  14      91.320 120.101 184.327  1.00  0.00     0.408 P 
ATOM    321  OP2  DA A  14      90.836 119.203 185.405  1.00  0.00    -0.624 OA
ATOM    322  OP1  DA A  14      92.344 119.612 183.368  1.00  0.00    -0.624 OA
BRANCH 320 323
ATOM    323  O5'  DA A  14      91.852 121.445 185.000  1.00  0.00    -0.287 OA
BRANCH 323 324
ATOM    324  C5'  DA A  14      93.094 122.028 184.609  1.00  0.00     0.216 C 
BRANCH 324 325
ATOM    325  C4'  DA A  14      93.486 123.121 185.576  1.00  0.00     0.180 C 
ATOM    326  C3'  DA A  14      93.456 122.725 187.046  1.00  0.00     0.198 C 
ATOM    327  C2'  DA A  14      93.177 124.050 187.741  1.00  0.00     0.199 C 
ATOM    328  C1'  DA A  14      92.207 124.699 186.755  1.00  0.00     0.262 C 
ATOM    329  O4'  DA A  14      92.531 124.212 185.465  1.00  0.00    -0.353 OA
BRANCH 326 330
ATOM    330  O3'  DA A  14      94.689 122.145 187.463  1.00  0.00    -0.279 OA
BRANCH 330 331
ATOM    331  P    DG A  15      95.974 122.222 186.497  1.00  0.00     0.408 P 
ATOM    332  OP2  DG A  15      95.941 121.051 185.584  1.00  0.00    -0.624 OA
ATOM    333  OP1  DG A  15      96.016 123.593 185.929  1.00  0.00    -0.624 OA
BRANCH 331 334
ATOM    334  O5'  DG A  15      97.213 122.050 187.485  1.00  0.00    -0.287 OA
BRANCH 334 335
ATOM    335  C5'  DG A  15      98.502 122.564 187.148  1.00  0.00     0.216 C 
BRANCH 335 336
ATOM    336  C4'  DG A  15      99.557 121.496 187.332  1.00  0.00     0.180 C 
ATOM    337  C3'  DG A  15     100.153 121.390 188.730  1.00  0.00     0.198 C 
ATOM    338  C2'  DG A  15     101.503 120.739 188.443  1.00  0.00     0.199 C 
ATOM    339  C1'  DG A  15     101.902 121.484 187.172  1.00  0.00     0.262 C 
ATOM    340  O4'  DG A  15     100.702 121.808 186.487  1.00  0.00    -0.353 OA
BRANCH 337 341
ATOM    341  O3'  DG A  15      99.293 120.685 189.642  1.00  0.00    -0.279 OA
BRANCH 341 342
ATOM    342  P    DT A  16      99.645 120.592 191.214  1.00  0.00     0.408 P 
ATOM    343  OP2  DT A  16     101.015 121.138 191.384  1.00  0.00    -0.624 OA
ATOM    344  OP1  DT A  16      98.527 121.181 191.995  1.00  0.00    -0.624 OA
BRANCH 342 345
ATOM    345  O5'  DT A  16      99.704 119.026 191.507  1.00  0.00    -0.287 OA
BRANCH 345 346
ATOM    346  C5'  DT A  16      99.251 118.074 190.546  1.00  0.00     0.216 C 
BRANCH 346 347
ATOM    347  C4'  DT A  16      99.424 116.670 191.079  1.00  0.00     0.180 C 
ATOM    348  C3'  DT A  16      99.435 115.567 190.030  1.00  0.00     0.198 C 
ATOM    349  C2'  DT A  16      98.970 114.351 190.824  1.00  0.00     0.199 C 
ATOM    350  C1'  DT A  16      97.950 114.983 191.773  1.00  0.00     0.264 C 
ATOM    351  O4'  DT A  16      98.291 116.348 191.928  1.00  0.00    -0.353 OA
BRANCH 348 352
ATOM    352  O3'  DT A  16     100.734 115.378 189.471  1.00  0.00    -0.279 OA
BRANCH 352 353
ATOM    353  P    DT A  17     100.932 115.405 187.873  1.00  0.00     0.408 P 
ATOM    354  OP2  DT A  17     100.730 116.793 187.387  1.00  0.00    -0.624 OA
ATOM    355  OP1  DT A  17     102.210 114.707 187.583  1.00  0.00    -0.624 OA
BRANCH 353 356
ATOM    356  O5'  DT A  17      99.747 114.493 187.315  1.00  0.00    -0.287 OA
BRANCH 356 357
ATOM    357  C5'  DT A  17      98.696 115.041 186.517  1.00  0.00     0.216 C 
BRANCH 357 358
ATOM    358  C4'  DT A  17      97.547 114.062 186.415  1.00  0.00     0.180 C 
ATOM    359  C3'  DT A  17      96.994 113.853 185.009  1.00  0.00     0.198 C 
ATOM    360  C2'  DT A  17      95.873 114.884 184.926  1.00  0.00     0.199 C 
ATOM    361  C1'  DT A  17      95.333 114.844 186.352  1.00  0.00     0.264 C 
ATOM    362  O4'  DT A  17      96.431 114.570 187.200  1.00  0.00    -0.353 OA
BRANCH 359 363
ATOM    363  O3'  DT A  17      96.526 112.515 184.837  1.00  0.00    -0.279 OA
BRANCH 363 364
ATOM    364  P    DG A  18      97.555 111.283 184.948  1.00  0.00     0.408 P 
ATOM    365  OP2  DG A  18      97.365 110.414 183.759  1.00  0.00    -0.624 OA
ATOM    366  OP1  DG A  18      98.902 111.837 185.245  1.00  0.00    -0.624 OA
BRANCH 364 367
ATOM    367  O5'  DG A  18      97.060 110.485 186.236  1.00  0.00    -0.287 OA
BRANCH 367 368
ATOM    368  C5'  DG A  18      95.886 110.886 186.942  1.00  0.00     0.216 C 
BRANCH 368 369
ATOM    369  C4'  DG A  18      95.821 110.186 188.281  1.00  0.00     0.180 C 
ATOM    370  O4'  DG A  18      94.732 110.764 189.050  1.00  0.00    -0.353 OA
ATOM    371  C1'  DG A  18      93.677 109.828 189.169  1.00  0.00     0.262 C 
ATOM    372  C2'  DG A  18      93.992 108.662 188.233  1.00  0.00     0.199 C 
ATOM    373  C3'  DG A  18      95.516 108.693 188.222  1.00  0.00     0.198 C 
BRANCH 371 374
ATOM    374  N9   DG A  18      92.424 110.510 188.862  1.00  0.00    -0.293 N 
ATOM    375  C4   DG A  18      91.157 110.066 189.156  1.00  0.00     0.187 A 
ATOM    376  C5   DG A  18      90.308 111.040 188.674  1.00  0.00     0.173 A 
ATOM    377  N3   DG A  18      90.847 108.914 189.784  1.00  0.00    -0.044 NA
ATOM    378  C6   DG A  18      88.908 110.864 188.831  1.00  0.00     0.292 A 
ATOM    379  N7   DG A  18      91.026 112.075 188.089  1.00  0.00    -0.234 NA
ATOM    380  N1   DG A  18      88.613 109.671 189.482  1.00  0.00    -0.153 N 
ATOM    381  O6   DG A  18      87.991 111.610 188.474  1.00  0.00    -0.265 OA
ATOM    382  C2   DG A  18      89.542 108.764 189.923  1.00  0.00     0.703 A 
ATOM    383  H1   DG A  18      87.640 109.462 189.636  1.00  0.00     0.187 HD
ATOM    384  C8   DG A  18      92.273 111.717 188.225  1.00  0.00     0.214 A 
BRANCH 382 385
ATOM    385  N2   DG A  18      89.062 107.674 190.526  1.00  0.00    -0.233 N 
ATOM    386  H21  DG A  18      89.656 106.863 190.620  1.00  0.00     0.174 HD
ATOM    387  H22  DG A  18      88.119 107.660 190.884  1.00  0.00     0.174 HD
ENDBRANCH 382 385
ENDBRANCH 371 374
BRANCH 372 388
ATOM    388  O2'  DG A  18      93.507 107.468 188.816  1.00  0.00    -0.388 OA
ATOM    389 2'HO  DG A  18      94.231 106.840 188.805  1.00  0.00     0.210 HD
ENDBRANCH 372 388
BRANCH 373 390
ATOM    390  O3'  DG A  18      96.078 107.998 189.334  1.00  0.00    -0.279 OA
BRANCH 390 391
ATOM    391  P    DG A  19      96.782 106.568 189.110  1.00  0.00     0.408 P 
ATOM    392  OP1  DG A  19      96.726 105.844 190.406  1.00  0.00    -0.624 OA
ATOM    393  OP2  DG A  19      98.095 106.786 188.450  1.00  0.00    -0.624 OA
BRANCH 391 394
ATOM    394  O5'  DG A  19      95.813 105.814 188.092  1.00  0.00    -0.287 OA
BRANCH 394 395
ATOM    395  C5'  DG A  19      96.204 104.593 187.463  1.00  0.00     0.216 C 
BRANCH 395 396
ATOM    396  C4'  DG A  19      96.269 104.778 185.965  1.00  0.00     0.180 C 
ATOM    397  O4'  DG A  19      94.914 104.953 185.463  1.00  0.00    -0.353 OA
ATOM    398  C1'  DG A  19      94.801 106.206 184.818  1.00  0.00     0.262 C 
ATOM    399  C2'  DG A  19      95.960 107.060 185.321  1.00  0.00     0.199 C 
ATOM    400  C3'  DG A  19      97.047 106.006 185.497  1.00  0.00     0.198 C 
BRANCH 398 401
ATOM    401  N9   DG A  19      93.478 106.750 185.107  1.00  0.00    -0.293 N 
ATOM    402  C4   DG A  19      93.087 108.061 184.970  1.00  0.00     0.187 A 
ATOM    403  N3   DG A  19      93.864 109.080 184.545  1.00  0.00    -0.044 NA
ATOM    404  C5   DG A  19      91.763 108.091 185.354  1.00  0.00     0.173 A 
ATOM    405  C2   DG A  19      93.205 110.223 184.517  1.00  0.00     0.703 A 
ATOM    406  N1   DG A  19      91.889 110.361 184.877  1.00  0.00    -0.153 N 
ATOM    407  H1   DG A  19      91.478 111.279 184.820  1.00  0.00     0.187 HD
ATOM    408  C6   DG A  19      91.069 109.329 185.318  1.00  0.00     0.292 A 
ATOM    409  O6   DG A  19      89.894 109.565 185.620  1.00  0.00    -0.265 OA
ATOM    410  N7   DG A  19      91.329 106.825 185.727  1.00  0.00    -0.234 NA
ATOM    411  C8   DG A  19      92.378 106.066 185.564  1.00  0.00     0.214 A 
BRANCH 405 412
ATOM    412  N2   DG A  19      93.826 111.337 184.120  1.00  0.00    -0.233 N 
ATOM    413  H21  DG A  19      93.467 112.232 184.420  1.00  0.00     0.174 HD
ATOM    414  H22  DG A  19      94.642 111.287 183.528  1.00  0.00     0.174 HD
ENDBRANCH 405 412
ENDBRANCH 398 401
BRANCH 399 415
ATOM    415  O2'  DG A  19      96.311 107.991 184.314  1.00  0.00    -0.388 OA
ATOM    416 2'HO  DG A  19      95.925 108.828 184.572  1.00  0.00     0.210 HD
ENDBRANCH 399 415
BRANCH 400 417
ATOM    417  O3'  DG A  19      97.747 105.748 184.283  1.00  0.00    -0.279 OA
BRANCH 417 418
ATOM    418  P    DG A  20      99.334 106.003 184.202  1.00  0.00     0.408 P 
ATOM    419  OP2  DG A  20      99.899 105.125 183.147  1.00  0.00    -0.624 OA
ATOM    420  OP1  DG A  20      99.538 107.473 184.120  1.00  0.00    -0.624 OA
BRANCH 418 421
ATOM    421  O5'  DG A  20      99.879 105.504 185.614  1.00  0.00    -0.287 OA
BRANCH 421 422
ATOM    422  C5'  DG A  20     100.134 104.121 185.857  1.00  0.00     0.216 C 
BRANCH 422 423
ATOM    423  C4'  DG A  20     101.533 103.936 186.400  1.00  0.00     0.180 C 
ATOM    424  C3'  DG A  20     101.897 104.820 187.588  1.00  0.00     0.198 C 
ATOM    425  C2'  DG A  20     103.407 104.966 187.442  1.00  0.00     0.199 C 
ATOM    426  C1'  DG A  20     103.547 105.049 185.923  1.00  0.00     0.262 C 
ATOM    427  O4'  DG A  20     102.488 104.293 185.362  1.00  0.00    -0.353 OA
BRANCH 424 428
ATOM    428  O3'  DG A  20     101.529 104.219 188.826  1.00  0.00    -0.279 OA
BRANCH 428 429
ATOM    429  P    DA A  21     101.283 105.143 190.120  1.00  0.00     0.408 P 
ATOM    430  OP2  DA A  21     101.963 106.444 189.900  1.00  0.00    -0.624 OA
ATOM    431  OP1  DA A  21      99.825 105.117 190.406  1.00  0.00    -0.624 OA
BRANCH 429 432
ATOM    432  O5'  DA A  21     102.026 104.370 191.299  1.00  0.00    -0.287 OA
BRANCH 432 433
ATOM    433  C5'  DA A  21     103.449 104.242 191.319  1.00  0.00     0.216 C 
BRANCH 433 434
ATOM    434  C4'  DA A  21     103.862 103.183 192.315  1.00  0.00     0.180 C 
ATOM    435  O4'  DA A  21     104.137 101.950 191.597  1.00  0.00    -0.353 OA
ATOM    436  C1'  DA A  21     105.232 101.281 192.196  1.00  0.00     0.262 C 
ATOM    437  C2'  DA A  21     105.651 102.078 193.433  1.00  0.00     0.199 C 
ATOM    438  C3'  DA A  21     105.143 103.473 193.085  1.00  0.00     0.198 C 
BRANCH 436 439
ATOM    439  N9   DA A  21     106.294 101.153 191.201  1.00  0.00    -0.294 N 
ATOM    440  C8   DA A  21     107.651 101.198 191.404  1.00  0.00     0.214 A 
ATOM    441  N7   DA A  21     108.355 101.043 190.309  1.00  0.00    -0.236 NA
ATOM    442  C5   DA A  21     107.397 100.888 189.317  1.00  0.00     0.149 A 
ATOM    443  C6   DA A  21     107.495 100.684 187.929  1.00  0.00     0.155 A 
ATOM    444  C4   DA A  21     106.124 100.956 189.851  1.00  0.00     0.167 A 
ATOM    445  N1   DA A  21     106.348 100.571 187.227  1.00  0.00    -0.222 NA
ATOM    446  C2   DA A  21     105.184 100.659 187.884  1.00  0.00     0.237 A 
ATOM    447  N3   DA A  21     104.962 100.848 189.183  1.00  0.00    -0.222 NA
BRANCH 443 448
ATOM    448  N6   DA A  21     108.652 100.595 187.273  1.00  0.00    -0.382 N 
ATOM    449  H61  DA A  21     108.868  99.763 186.742  1.00  0.00     0.157 HD
ATOM    450  H62  DA A  21     109.307 101.363 187.309  1.00  0.00     0.157 HD
ENDBRANCH 443 448
ENDBRANCH 436 439
BRANCH 437 451
ATOM    451  O2'  DA A  21     104.971 101.555 194.557  1.00  0.00    -0.388 OA
ATOM    452 2'HO  DA A  21     105.362 101.969 195.328  1.00  0.00     0.210 HD
ENDBRANCH 437 451
BRANCH 438 453
ATOM    453  O3'  DA A  21     104.887 104.259 194.246  1.00  0.00    -0.279 OA
BRANCH 453 454
ATOM    454  P    DG A  22     105.354 105.800 194.291  1.00  0.00     0.408 P 
ATOM    455  OP2  DG A  22     106.777 105.876 193.870  1.00  0.00    -0.624 OA
ATOM    456  OP1  DG A  22     104.330 106.587 193.560  1.00  0.00    -0.624 OA
BRANCH 454 457
ATOM    457  O5'  DG A  22     105.260 106.185 195.836  1.00  0.00    -0.287 OA
BRANCH 457 458
ATOM    458  C5'  DG A  22     104.054 105.991 196.575  1.00  0.00     0.216 C 
BRANCH 458 459
ATOM    459  C4'  DG A  22     104.272 104.964 197.661  1.00  0.00     0.180 C 
ATOM    460  O4'  DG A  22     105.277 105.469 198.588  1.00  0.00    -0.353 OA
ATOM    461  C1'  DG A  22     104.851 105.247 199.920  1.00  0.00     0.262 C 
ATOM    462  C2'  DG A  22     103.705 104.243 199.846  1.00  0.00     0.199 C 
ATOM    463  C3'  DG A  22     103.059 104.653 198.530  1.00  0.00     0.198 C 
BRANCH 461 464
ATOM    464  N9   DG A  22     104.472 106.530 200.505  1.00  0.00    -0.293 N 
ATOM    465  C8   DG A  22     103.566 107.432 200.005  1.00  0.00     0.214 A 
ATOM    466  N7   DG A  22     103.429 108.493 200.752  1.00  0.00    -0.234 NA
ATOM    467  C5   DG A  22     104.301 108.280 201.812  1.00  0.00     0.173 A 
ATOM    468  C4   DG A  22     104.953 107.073 201.674  1.00  0.00     0.187 A 
ATOM    469  C6   DG A  22     104.591 109.089 202.941  1.00  0.00     0.292 A 
ATOM    470  N3   DG A  22     105.871 106.514 202.490  1.00  0.00    -0.044 NA
ATOM    471  C2   DG A  22     106.130 107.278 203.537  1.00  0.00     0.703 A 
ATOM    472  N1   DG A  22     105.539 108.493 203.766  1.00  0.00    -0.153 N 
ATOM    473  H1   DG A  22     105.809 108.998 204.596  1.00  0.00     0.187 HD
ATOM    474  O6   DG A  22     104.117 110.189 203.245  1.00  0.00    -0.265 OA
BRANCH 471 475
ATOM    475  N2   DG A  22     107.019 106.877 204.450  1.00  0.00    -0.233 N 
ATOM    476  H21  DG A  22     106.727 106.769 205.410  1.00  0.00     0.174 HD
ATOM    477  H22  DG A  22     107.973 106.682 204.182  1.00  0.00     0.174 HD
ENDBRANCH 471 475
ENDBRANCH 461 464
BRANCH 462 478
ATOM    478  O2'  DG A  22     104.246 102.937 199.766  1.00  0.00    -0.388 OA
ATOM    479 2'HO  DG A  22     104.438 102.665 200.664  1.00  0.00     0.210 HD
ENDBRANCH 462 478
BRANCH 463 480
ATOM    480  O3'  DG A  22     102.257 103.617 197.969  1.00  0.00    -0.279 OA
BRANCH 480 481
ATOM    481  P    DA A  23     102.916 102.553 196.958  1.00  0.00     0.408 P 
ATOM    482  OP2  DA A  23     102.469 102.868 195.578  1.00  0.00    -0.624 OA
ATOM    483  OP1  DA A  23     104.368 102.495 197.263  1.00  0.00    -0.624 OA
BRANCH 481 484
ATOM    484  O5'  DA A  23     102.267 101.160 197.383  1.00  0.00    -0.287 OA
BRANCH 484 485
ATOM    485  C5'  DA A  23     102.314 100.709 198.735  1.00  0.00     0.216 C 
BRANCH 485 486
ATOM    486  C4'  DA A  23     100.914 100.548 199.282  1.00  0.00     0.180 C 
ATOM    487  O4'  DA A  23     100.923 100.851 200.706  1.00  0.00    -0.353 OA
ATOM    488  C1'  DA A  23      99.770 101.604 201.042  1.00  0.00     0.262 C 
ATOM    489  C2'  DA A  23      98.847 101.565 199.826  1.00  0.00     0.199 C 
ATOM    490  C3'  DA A  23      99.868 101.489 198.699  1.00  0.00     0.198 C 
BRANCH 488 491
ATOM    491  N9   DA A  23     100.194 102.953 201.418  1.00  0.00    -0.294 N 
ATOM    492  C8   DA A  23     100.048 104.109 200.692  1.00  0.00     0.214 A 
ATOM    493  N7   DA A  23     100.533 105.172 201.288  1.00  0.00    -0.236 NA
ATOM    494  C5   DA A  23     101.029 104.683 202.489  1.00  0.00     0.149 A 
ATOM    495  C6   DA A  23     101.669 105.309 203.571  1.00  0.00     0.155 A 
ATOM    496  C4   DA A  23     100.825 103.318 202.582  1.00  0.00     0.167 A 
ATOM    497  N1   DA A  23     102.037 104.537 204.617  1.00  0.00    -0.222 NA
ATOM    498  C2   DA A  23     101.773 103.224 204.566  1.00  0.00     0.237 A 
ATOM    499  N3   DA A  23     101.178 102.520 203.605  1.00  0.00    -0.222 NA
BRANCH 495 500
ATOM    500  N6   DA A  23     101.933 106.615 203.620  1.00  0.00    -0.382 N 
ATOM    501  H62  DA A  23     101.190 107.289 203.497  1.00  0.00     0.157 HD
ATOM    502  H61  DA A  23     102.880 106.928 203.777  1.00  0.00     0.157 HD
ENDBRANCH 495 500
ENDBRANCH 488 491
BRANCH 489 503
ATOM    503  O2'  DA A  23      98.060 100.390 199.889  1.00  0.00    -0.388 OA
ATOM    504 2'HO  DA A  23      98.423  99.782 199.245  1.00  0.00     0.210 HD
ENDBRANCH 489 503
BRANCH 490 505
ATOM    505  O3'  DA A  23      99.314 100.981 197.489  1.00  0.00    -0.279 OA
BRANCH 505 506
ATOM    506  P    DG A  24      98.959 101.989 196.286  1.00  0.00     0.408 P 
ATOM    507  OP1  DG A  24      99.578 101.440 195.053  1.00  0.00    -0.624 OA
ATOM    508  OP2  DG A  24      99.282 103.375 196.714  1.00  0.00    -0.624 OA
BRANCH 506 509
ATOM    509  O5'  DG A  24      97.377 101.870 196.142  1.00  0.00    -0.287 OA
BRANCH 509 510
ATOM    510  C5'  DG A  24      96.553 103.035 196.099  1.00  0.00     0.216 C 
BRANCH 510 511
ATOM    511  C4'  DG A  24      95.309 102.822 196.929  1.00  0.00     0.180 C 
ATOM    512  O4'  DG A  24      94.267 102.265 196.084  1.00  0.00    -0.353 OA
ATOM    513  C1'  DG A  24      93.494 101.338 196.828  1.00  0.00     0.262 C 
ATOM    514  C2'  DG A  24      94.023 101.326 198.263  1.00  0.00     0.199 C 
ATOM    515  C3'  DG A  24      95.452 101.821 198.066  1.00  0.00     0.198 C 
BRANCH 513 516
ATOM    516  N9   DG A  24      93.571 100.040 196.165  1.00  0.00    -0.293 N 
ATOM    517  C4   DG A  24      92.903  99.665 195.025  1.00  0.00     0.187 A 
ATOM    518  N3   DG A  24      92.048 100.433 194.318  1.00  0.00    -0.044 NA
ATOM    519  C5   DG A  24      93.297  98.367 194.780  1.00  0.00     0.173 A 
ATOM    520  C2   DG A  24      91.562  99.793 193.270  1.00  0.00     0.703 A 
ATOM    521  N1   DG A  24      91.888  98.504 192.939  1.00  0.00    -0.153 N 
ATOM    522  H1   DG A  24      91.459  98.107 192.117  1.00  0.00     0.187 HD
ATOM    523  C6   DG A  24      92.767  97.694 193.649  1.00  0.00     0.292 A 
ATOM    524  O6   DG A  24      92.991  96.543 193.260  1.00  0.00    -0.265 OA
ATOM    525  N7   DG A  24      94.192  97.932 195.748  1.00  0.00    -0.234 NA
ATOM    526  C8   DG A  24      94.321  98.955 196.548  1.00  0.00     0.214 A 
BRANCH 520 527
ATOM    527  N2   DG A  24      90.698 100.409 192.460  1.00  0.00    -0.233 N 
ATOM    528  H21  DG A  24      91.034 101.129 191.838  1.00  0.00     0.174 HD
ATOM    529  H22  DG A  24      89.717 100.165 192.472  1.00  0.00     0.174 HD
ENDBRANCH 520 527
ENDBRANCH 513 516
BRANCH 514 530
ATOM    530  O2'  DG A  24      93.269 102.244 199.032  1.00  0.00    -0.388 OA
ATOM    531 2'HO  DG A  24      92.897 102.876 198.416  1.00  0.00     0.210 HD
ENDBRANCH 514 530
BRANCH 515 532
ATOM    532  O3'  DG A  24      95.979 102.440 199.236  1.00  0.00    -0.279 OA
BRANCH 532 533
ATOM    533  P    DC A  25      95.587 103.960 199.580  1.00  0.00     0.408 P 
ATOM    534  OP2  DC A  25      96.816 104.667 200.022  1.00  0.00    -0.624 OA
ATOM    535  OP1  DC A  25      94.814 104.483 198.425  1.00  0.00    -0.624 OA
BRANCH 533 536
ATOM    536  O5'  DC A  25      94.606 103.829 200.829  1.00  0.00    -0.287 OA
BRANCH 536 537
ATOM    537  C5'  DC A  25      94.879 102.912 201.888  1.00  0.00     0.216 C 
BRANCH 537 538
ATOM    538  C4'  DC A  25      94.029 103.241 203.094  1.00  0.00     0.180 C 
ATOM    539  O4'  DC A  25      93.662 104.644 203.030  1.00  0.00    -0.353 OA
ATOM    540  C1'  DC A  25      92.336 104.816 203.496  1.00  0.00     0.264 C 
ATOM    541  C2'  DC A  25      91.822 103.457 203.975  1.00  0.00     0.199 C 
ATOM    542  C3'  DC A  25      92.705 102.493 203.187  1.00  0.00     0.198 C 
ATOM    543  O2'  DC A  25      92.065 103.346 205.365  1.00  0.00    -0.388 OA
ATOM    544  O3'  DC A  25      92.851 101.245 203.861  1.00  0.00    -0.279 OA
ATOM    545  P    DG A  26      93.342  99.944 203.052  1.00  0.00     0.408 P 
ATOM    546  OP1  DG A  26      94.531  99.412 203.765  1.00  0.00    -0.624 OA
ATOM    547  OP2  DG A  26      93.439 100.267 201.608  1.00  0.00    -0.624 OA
ATOM    548  O5'  DG A  26      92.155  98.897 203.242  1.00  0.00    -0.287 OA
ATOM    549  C5'  DG A  26      91.390  98.857 204.447  1.00  0.00     0.216 C 
ATOM    550  C4'  DG A  26      89.913  98.900 204.126  1.00  0.00     0.180 C 
ATOM    551  O4'  DG A  26      89.589 100.227 203.626  1.00  0.00    -0.353 OA
ATOM    552  C3'  DG A  26      89.458  97.941 203.033  1.00  0.00     0.198 C 
ATOM    553  C1'  DG A  26      88.718 100.122 202.514  1.00  0.00     0.262 C 
ATOM    554  N9   DG A  26      89.429 100.602 201.332  1.00  0.00    -0.293 N 
ATOM    555  C2'  DG A  26      88.265  98.666 202.421  1.00  0.00     0.199 C 
ATOM    556  C8   DG A  26      90.544 100.048 200.751  1.00  0.00     0.214 A 
ATOM    557  C4   DG A  26      89.112 101.709 200.582  1.00  0.00     0.187 A 
ATOM    558  N7   DG A  26      90.961 100.707 199.706  1.00  0.00    -0.234 NA
ATOM    559  C5   DG A  26      90.066 101.761 199.586  1.00  0.00     0.173 A 
ATOM    560  C6   DG A  26      90.008 102.816 198.640  1.00  0.00     0.292 A 
ATOM    561  N1   DG A  26      88.935 103.666 198.885  1.00  0.00    -0.153 N 
ATOM    562  O6   DG A  26      90.761 103.042 197.687  1.00  0.00    -0.265 OA
ATOM    563  C2   DG A  26      88.037 103.523 199.911  1.00  0.00     0.703 A 
ATOM    564  H1   DG A  26      88.811 104.446 198.260  1.00  0.00     0.187 HD
ATOM    565  N2   DG A  26      87.072 104.443 199.978  1.00  0.00    -0.233 N 
ATOM    566  N3   DG A  26      88.079 102.549 200.802  1.00  0.00    -0.044 NA
ATOM    567  H21  DG A  26      86.384 104.379 200.718  1.00  0.00     0.174 HD
ATOM    568  H22  DG A  26      87.022 105.192 199.302  1.00  0.00     0.174 HD
ATOM    569  O2'  DG A  26      87.105  98.499 203.214  1.00  0.00    -0.388 OA
ATOM    570 2'HO  DG A  26      87.195  97.654 203.658  1.00  0.00     0.210 HD
ATOM    571  O3'  DG A  26      89.101  96.668 203.566  1.00  0.00    -0.279 OA
ATOM    572  P    DC A  27      89.480  95.327 202.761  1.00  0.00     0.408 P 
ATOM    573  O5'  DC A  27      88.387  95.247 201.603  1.00  0.00    -0.287 OA
ATOM    574  OP1  DC A  27      89.272  94.182 203.684  1.00  0.00    -0.624 OA
ATOM    575  OP2  DC A  27      90.808  95.521 202.124  1.00  0.00    -0.624 OA
ATOM    576  C5'  DC A  27      87.152  94.556 201.798  1.00  0.00     0.216 C 
ATOM    577  C4'  DC A  27      86.012  95.336 201.181  1.00  0.00     0.180 C 
ATOM    578  O4'  DC A  27      86.425  96.715 200.975  1.00  0.00    -0.353 OA
ATOM    579  C3'  DC A  27      85.576  94.870 199.799  1.00  0.00     0.198 C 
ATOM    580  C1'  DC A  27      85.868  97.206 199.767  1.00  0.00     0.264 C 
ATOM    581  N1   DC A  27      86.966  97.553 198.850  1.00  0.00    -0.278 N 
ATOM    582  C2'  DC A  27      84.937  96.125 199.221  1.00  0.00     0.199 C 
ATOM    583  C2   DC A  27      86.667  98.234 197.665  1.00  0.00     0.352 A 
ATOM    584  C6   DC A  27      88.259  97.218 199.143  1.00  0.00     0.102 A 
ATOM    585  N3   DC A  27      87.668  98.560 196.819  1.00  0.00    -0.177 NA
ATOM    586  O2   DC A  27      85.487  98.523 197.418  1.00  0.00    -0.244 OA
ATOM    587  C4   DC A  27      88.926  98.232 197.116  1.00  0.00     0.128 A 
ATOM    588  N4   DC A  27      89.878  98.577 196.251  1.00  0.00    -0.384 N 
ATOM    589  C5   DC A  27      89.262  97.535 198.313  1.00  0.00     0.067 A 
ATOM    590  H42  DC A  27      89.628  99.072 195.407  1.00  0.00     0.157 HD
ATOM    591  H41  DC A  27      90.844  98.349 196.438  1.00  0.00     0.157 HD
ATOM    592  O2'  DC A  27      83.640  96.333 199.749  1.00  0.00    -0.388 OA
ATOM    593 2'HO  DC A  27      83.383  95.518 200.178  1.00  0.00     0.210 HD
ATOM    594  O3'  DC A  27      84.664  93.777 199.874  1.00  0.00    -0.279 OA
ATOM    595  P    DT A  28      84.522  92.771 198.627  1.00  0.00     0.408 P 
ATOM    596  OP1  DT A  28      83.641  91.654 199.055  1.00  0.00    -0.624 OA
ATOM    597  OP2  DT A  28      85.879  92.476 198.103  1.00  0.00    -0.624 OA
ATOM    598  O5'  DT A  28      83.742  93.625 197.530  1.00  0.00    -0.287 OA
ATOM    599  C5'  DT A  28      82.440  94.147 197.796  1.00  0.00     0.216 C 
ATOM    600  C4'  DT A  28      81.920  94.890 196.587  1.00  0.00     0.180 C 
ATOM    601  O4'  DT A  28      82.690  96.111 196.414  1.00  0.00    -0.353 OA
ATOM    602  C3'  DT A  28      82.063  94.166 195.256  1.00  0.00     0.198 C 
ATOM    603  C1'  DT A  28      82.879  96.364 195.032  1.00  0.00     0.264 C 
ATOM    604  C2'  DT A  28      82.071  95.320 194.262  1.00  0.00     0.199 C 
ATOM    605  N1   DT A  28      84.320  96.323 194.743  1.00  0.00    -0.280 N 
ATOM    606  O2'  DT A  28      80.765  95.824 194.052  1.00  0.00    -0.388 OA
ATOM    607 2'HO  DT A  28      80.161  95.218 194.483  1.00  0.00     0.210 HD
ATOM    608  C2   DT A  28      84.773  97.013 193.634  1.00  0.00     0.331 A 
ATOM    609  C6   DT A  28      85.192  95.623 195.547  1.00  0.00     0.104 A 
ATOM    610  N3   DT A  28      86.124  96.938 193.418  1.00  0.00    -0.275 N 
ATOM    611  O2   DT A  28      84.036  97.642 192.898  1.00  0.00    -0.246 OA
ATOM    612  C4   DT A  28      87.050  96.262 194.180  1.00  0.00     0.250 A 
ATOM    613  H3   DT A  28      86.472  97.435 192.611  1.00  0.00     0.173 HD
ATOM    614  O4   DT A  28      88.237  96.296 193.859  1.00  0.00    -0.268 OA
ATOM    615  C5   DT A  28      86.505  95.574 195.306  1.00  0.00     0.092 A 
ATOM    616  O3'  DT A  28      80.990  93.256 195.028  1.00  0.00    -0.279 OA
ATOM    617  P    DT A  29      81.169  92.062 193.965  1.00  0.00     0.408 P 
ATOM    618  OP1  DT A  29      79.949  91.219 194.034  1.00  0.00    -0.624 OA
ATOM    619  OP2  DT A  29      82.502  91.441 194.174  1.00  0.00    -0.624 OA
ATOM    620  O5'  DT A  29      81.186  92.800 192.552  1.00  0.00    -0.287 OA
ATOM    621  C5'  DT A  29      80.095  93.623 192.141  1.00  0.00     0.216 C 
ATOM    622  C4'  DT A  29      80.344  94.167 190.753  1.00  0.00     0.180 C 
ATOM    623  C3'  DT A  29      80.912  93.179 189.747  1.00  0.00     0.198 C 
ATOM    624  O4'  DT A  29      81.354  95.210 190.819  1.00  0.00    -0.353 OA
ATOM    625  O3'  DT A  29      79.896  92.357 189.179  1.00  0.00    -0.279 OA
ATOM    626  C2'  DT A  29      81.557  94.106 188.725  1.00  0.00     0.199 C 
ATOM    627  P    DC A  30      80.271  90.897 188.618  1.00  0.00     0.408 P 
ATOM    628  OP1  DC A  30      79.002  90.228 188.237  1.00  0.00    -0.624 OA
ATOM    629  O5'  DC A  30      81.093  91.197 187.286  1.00  0.00    -0.287 OA
ATOM    630  OP2  DC A  30      81.186  90.239 189.585  1.00  0.00    -0.624 OA
ATOM    631  C5'  DC A  30      80.546  92.013 186.252  1.00  0.00     0.216 C 
ATOM    632  C4'  DC A  30      81.615  92.364 185.245  1.00  0.00     0.180 C 
ATOM    633  O4'  DC A  30      82.594  93.237 185.870  1.00  0.00    -0.353 OA
ATOM    634  C3'  DC A  30      82.445  91.196 184.736  1.00  0.00     0.198 C 
ATOM    635  C1'  DC A  30      83.881  92.966 185.339  1.00  0.00     0.264 C 
ATOM    636  C2'  DC A  30      83.718  91.888 184.267  1.00  0.00     0.199 C 
ATOM    637  N1   DC A  30      84.769  92.563 186.444  1.00  0.00    -0.278 N 
ATOM    638  O2'  DC A  30      83.527  92.521 183.015  1.00  0.00    -0.388 OA
ATOM    639 2'HO  DC A  30      82.769  92.103 182.606  1.00  0.00     0.210 HD
ATOM    640  C2   DC A  30      86.147  92.735 186.293  1.00  0.00     0.352 A 
ATOM    641  C6   DC A  30      84.262  92.028 187.595  1.00  0.00     0.102 A 
ATOM    642  N3   DC A  30      86.973  92.368 187.298  1.00  0.00    -0.177 NA
ATOM    643  O2   DC A  30      86.580  93.222 185.241  1.00  0.00    -0.244 OA
ATOM    644  C4   DC A  30      86.469  91.851 188.419  1.00  0.00     0.128 A 
ATOM    645  N4   DC A  30      87.323  91.507 189.382  1.00  0.00    -0.384 N 
ATOM    646  C5   DC A  30      85.068  91.665 188.601  1.00  0.00     0.067 A 
ATOM    647  H42  DC A  30      88.315  91.644 189.243  1.00  0.00     0.157 HD
ATOM    648  H41  DC A  30      86.984  91.112 190.247  1.00  0.00     0.157 HD
ATOM    649  O3'  DC A  30      81.784  90.493 183.688  1.00  0.00    -0.279 OA
ATOM    650  P    DA A  31      82.116  88.939 183.435  1.00  0.00     0.408 P 
ATOM    651  OP1  DA A  31      81.112  88.424 182.470  1.00  0.00    -0.624 OA
ATOM    652  O5'  DA A  31      83.535  88.963 182.712  1.00  0.00    -0.287 OA
ATOM    653  OP2  DA A  31      82.277  88.271 184.752  1.00  0.00    -0.624 OA
ATOM    654  C5'  DA A  31      83.709  89.623 181.459  1.00  0.00     0.216 C 
ATOM    655  C4'  DA A  31      85.142  89.496 180.997  1.00  0.00     0.180 C 
ATOM    656  O4'  DA A  31      85.982  90.366 181.803  1.00  0.00    -0.353 OA
ATOM    657  C3'  DA A  31      85.769  88.120 181.162  1.00  0.00     0.198 C 
ATOM    658  C1'  DA A  31      87.240  89.747 182.018  1.00  0.00     0.262 C 
ATOM    659  N9   DA A  31      87.414  89.538 183.455  1.00  0.00    -0.294 N 
ATOM    660  C2'  DA A  31      87.256  88.450 181.209  1.00  0.00     0.199 C 
ATOM    661  C4   DA A  31      88.611  89.442 184.122  1.00  0.00     0.167 A 
ATOM    662  C8   DA A  31      86.439  89.392 184.410  1.00  0.00     0.214 A 
ATOM    663  C5   DA A  31      88.286  89.241 185.451  1.00  0.00     0.149 A 
ATOM    664  N3   DA A  31      89.845  89.523 183.598  1.00  0.00    -0.222 NA
ATOM    665  N7   DA A  31      86.908  89.214 185.621  1.00  0.00    -0.236 NA
ATOM    666  C6   DA A  31      89.354  89.106 186.355  1.00  0.00     0.155 A 
ATOM    667  N1   DA A  31      90.609  89.181 185.861  1.00  0.00    -0.222 NA
ATOM    668  C2   DA A  31      90.768  89.379 184.546  1.00  0.00     0.237 A 
ATOM    669  O2'  DT A  29      80.584  94.697 187.884  1.00  0.00    -0.388 OA
ATOM    670  C1'  DT A  29      82.139  95.187 189.637  1.00  0.00     0.264 C 
ATOM    671 2'HO  DT A  29      79.770  94.209 188.019  1.00  0.00     0.210 HD
ATOM    672  N1   DT A  29      83.540  94.948 190.011  1.00  0.00    -0.280 N 
ATOM    673  C2   DT A  29      84.525  95.428 189.166  1.00  0.00     0.331 A 
ATOM    674  C6   DT A  29      83.866  94.269 191.163  1.00  0.00     0.104 A 
ATOM    675  O2   DT A  29      84.279  96.034 188.139  1.00  0.00    -0.246 OA
ATOM    676  N3   DT A  29      85.810  95.171 189.568  1.00  0.00    -0.275 N 
ATOM    677  C4   DT A  29      86.205  94.503 190.703  1.00  0.00     0.250 A 
ATOM    678  H3   DT A  29      86.544  95.510 188.964  1.00  0.00     0.173 HD
ATOM    679  O4   DT A  29      87.405  94.350 190.926  1.00  0.00    -0.268 OA
ATOM    680  C5   DT A  29      85.132  94.039 191.525  1.00  0.00     0.092 A 
ATOM    681 2'HO  DC A  25      92.346 102.443 205.521  1.00  0.00     0.210 HD
BRANCH 540 682
ATOM    682  N1   DC A  25      91.536 105.403 202.409  1.00  0.00    -0.278 N 
ATOM    683  C2   DC A  25      90.249 105.868 202.694  1.00  0.00     0.352 A 
ATOM    684  N3   DC A  25      89.506 106.405 201.702  1.00  0.00    -0.177 NA
ATOM    685  O2   DC A  25      89.820 105.779 203.854  1.00  0.00    -0.244 OA
ATOM    686  C4   DC A  25      90.003 106.489 200.467  1.00  0.00     0.128 A 
ATOM    687  N4   DC A  25      89.232 107.030 199.523  1.00  0.00    -0.384 N 
ATOM    688  C5   DC A  25      91.311 106.024 200.147  1.00  0.00     0.067 A 
ATOM    689  H42  DC A  25      88.311 107.368 199.760  1.00  0.00     0.157 HD
ATOM    690  H41  DC A  25      89.571 107.114 198.575  1.00  0.00     0.157 HD
ATOM    691  C6   DC A  25      92.036 105.493 201.140  1.00  0.00     0.102 A 
ENDBRANCH 540 682
BRANCH 666 692
ATOM    692  N6   DA A  31      89.195  88.912 187.664  1.00  0.00    -0.382 N 
ATOM    693  H62  DA A  31      88.297  88.615 188.023  1.00  0.00     0.157 HD
ATOM    694  H61  DA A  31      89.969  89.062 188.294  1.00  0.00     0.157 HD
ENDBRANCH 666 692
BRANCH 660 695
ATOM    695  O2'  DA A  31      87.759  88.729 179.916  1.00  0.00    -0.388 OA
ATOM    696 2'HO  DA A  31      87.139  89.331 179.503  1.00  0.00     0.210 HD
ENDBRANCH 660 695
BRANCH 657 697
ATOM    697  O3'  DA A  31      85.438  87.249 180.085  1.00  0.00    -0.279 OA
BRANCH 697 698
ATOM    698  P    DA A  32      85.524  85.656 180.292  1.00  0.00     0.408 P 
ATOM    699  OP2  DA A  32      84.757  85.299 181.511  1.00  0.00    -0.624 OA
ATOM    700  OP1  DA A  32      85.174  85.025 178.993  1.00  0.00    -0.624 OA
BRANCH 698 701
ATOM    701  O5'  DA A  32      87.070  85.386 180.573  1.00  0.00    -0.287 OA
ATOM    702  C5'  DA A  32      88.053  85.653 179.575  1.00  0.00     0.216 C 
ATOM    703  C4'  DA A  32      89.443  85.558 180.165  1.00  0.00     0.180 C 
ATOM    704  C3'  DA A  32      89.863  84.184 180.659  1.00  0.00     0.198 C 
ATOM    705  O4'  DA A  32      89.528  86.367 181.362  1.00  0.00    -0.353 OA
ATOM    706  O3'  DA A  32      90.286  83.350 179.583  1.00  0.00    -0.279 OA
ATOM    707  C2'  DA A  32      91.002  84.508 181.626  1.00  0.00     0.199 C 
ATOM    708  P    DT A  33      90.076  81.758 179.675  1.00  0.00     0.408 P 
ATOM    709  OP1  DT A  33      90.937  81.138 178.637  1.00  0.00    -0.624 OA
ATOM    710  OP2  DT A  33      88.617  81.482 179.680  1.00  0.00    -0.624 OA
ATOM    711  O5'  DT A  33      90.661  81.374 181.106  1.00  0.00    -0.287 OA
ATOM    712  C5'  DT A  33      92.069  81.336 181.338  1.00  0.00     0.216 C 
ATOM    713  C4'  DT A  33      92.353  80.836 182.734  1.00  0.00     0.180 C 
ATOM    714  O4'  DT A  33      91.978  81.856 183.693  1.00  0.00    -0.353 OA
ATOM    715  C3'  DT A  33      91.554  79.615 183.164  1.00  0.00     0.198 C 
ATOM    716  C1'  DT A  33      91.522  81.243 184.885  1.00  0.00     0.264 C 
ATOM    717  N1   DT A  33      90.179  81.760 185.185  1.00  0.00    -0.280 N 
ATOM    718  C2'  DT A  33      91.570  79.726 184.686  1.00  0.00     0.199 C 
ATOM    719  C2   DT A  33      89.915  82.156 186.484  1.00  0.00     0.331 A 
ATOM    720  C6   DT A  33      89.214  81.850 184.208  1.00  0.00     0.104 A 
ATOM    721  N3   DT A  33      88.644  82.621 186.701  1.00  0.00    -0.275 N 
ATOM    722  O2   DT A  33      90.743  82.100 187.376  1.00  0.00    -0.246 OA
ATOM    723  H3   DT A  33      88.426  82.904 187.645  1.00  0.00     0.173 HD
ATOM    724  C4   DT A  33      87.634  82.735 185.775  1.00  0.00     0.250 A 
ATOM    725  C5   DT A  33      87.985  82.312 184.456  1.00  0.00     0.092 A 
ATOM    726  O4   DT A  33      86.541  83.177 186.126  1.00  0.00    -0.268 OA
ATOM    727  O2'  DT A  33      92.787  79.242 185.219  1.00  0.00    -0.388 OA
ATOM    728 2'HO  DT A  33      93.112  78.572 184.618  1.00  0.00     0.210 HD
ATOM    729  O3'  DT A  33      92.155  78.411 182.697  1.00  0.00    -0.279 OA
ATOM    730  P    DG A  34      91.227  77.197 182.198  1.00  0.00     0.408 P 
ATOM    731  OP2  DG A  34      90.300  77.714 181.159  1.00  0.00    -0.624 OA
ATOM    732  OP1  DG A  34      92.120  76.054 181.883  1.00  0.00    -0.624 OA
ATOM    733  O5'  DG A  34      90.372  76.821 183.489  1.00  0.00    -0.287 OA
ATOM    734  C5'  DG A  34      89.165  76.068 183.379  1.00  0.00     0.216 C 
ATOM    735  C4'  DG A  34      88.822  75.444 184.712  1.00  0.00     0.180 C 
ATOM    736  O4'  DG A  34      89.846  74.469 185.046  1.00  0.00    -0.353 OA
ATOM    737  C3'  DG A  34      88.797  76.405 185.895  1.00  0.00     0.198 C 
ATOM    738  C1'  DG A  34      90.131  74.527 186.431  1.00  0.00     0.262 C 
ATOM    739  N9   DG A  34      91.528  74.914 186.596  1.00  0.00    -0.293 N 
ATOM    740  C2'  DG A  34      89.140  75.499 187.072  1.00  0.00     0.199 C 
ATOM    741  C8   DG A  34      92.296  75.650 185.728  1.00  0.00     0.214 A 
ATOM    742  C4   DG A  34      92.339  74.603 187.661  1.00  0.00     0.187 A 
ATOM    743  N7   DG A  34      93.519  75.828 186.146  1.00  0.00    -0.234 NA
ATOM    744  C5   DG A  34      93.561  75.170 187.369  1.00  0.00     0.173 A 
ATOM    745  C6   DG A  34      94.624  75.015 188.296  1.00  0.00     0.292 A 
ATOM    746  N1   DG A  34      94.230  74.275 189.405  1.00  0.00    -0.153 N 
ATOM    747  O6   DG A  34      95.783  75.440 188.223  1.00  0.00    -0.265 OA
ATOM    748  H1   DG A  34      94.922  74.113 190.119  1.00  0.00     0.187 HD
ATOM    749  C2   DG A  34      92.978  73.753 189.599  1.00  0.00     0.703 A 
ATOM    750  N2   DG A  34      92.794  73.073 190.734  1.00  0.00    -0.233 N 
ATOM    751  N3   DG A  34      91.980  73.889 188.747  1.00  0.00    -0.044 NA
ATOM    752  H22  DG A  34      93.549  72.961 191.394  1.00  0.00     0.174 HD
ATOM    753  H21  DG A  34      91.888  72.670 190.922  1.00  0.00     0.174 HD
ATOM    754  O2'  DG A  34      88.005  74.770 187.501  1.00  0.00    -0.388 OA
ATOM    755 2'HO  DG A  34      87.238  75.245 187.179  1.00  0.00     0.210 HD
ATOM    756  O3'  DG A  34      87.515  77.015 186.036  1.00  0.00    -0.279 OA
ATOM    757  P    DG A  35      87.390  78.470 186.713  1.00  0.00     0.408 P 
ATOM    758  OP2  DG A  35      88.319  79.397 186.017  1.00  0.00    -0.624 OA
ATOM    759  O5'  DG A  35      87.915  78.255 188.203  1.00  0.00    -0.287 OA
ATOM    760  OP1  DG A  35      85.943  78.797 186.777  1.00  0.00    -0.624 OA
ATOM    761  C5'  DG A  35      87.218  77.406 189.115  1.00  0.00     0.216 C 
ATOM    762  C4'  DG A  35      87.892  77.428 190.468  1.00  0.00     0.180 C 
ATOM    763  C3'  DG A  35      88.283  78.812 190.977  1.00  0.00     0.198 C 
ATOM    764  O4'  DG A  35      89.136  76.681 190.371  1.00  0.00    -0.353 OA
ATOM    765  C2'  DG A  35      89.550  78.541 191.782  1.00  0.00     0.199 C 
ATOM    766  O3'  DG A  35      87.250  79.378 191.782  1.00  0.00    -0.279 OA
ATOM    767  C1'  DG A  35      90.186  77.414 190.971  1.00  0.00     0.262 C 
ATOM    768  O2'  DG A  35      89.239  78.055 193.074  1.00  0.00    -0.388 OA
ATOM    769  N9   DG A  35      91.084  77.875 189.916  1.00  0.00    -0.293 N 
ATOM    770  C8   DG A  35      90.734  78.498 188.743  1.00  0.00     0.214 A 
ATOM    771  C4   DG A  35      92.454  77.768 189.903  1.00  0.00     0.187 A 
ATOM    772  N7   DG A  35      91.758  78.794 187.992  1.00  0.00    -0.234 NA
ATOM    773  C5   DG A  35      92.854  78.337 188.713  1.00  0.00     0.173 A 
ATOM    774  C6   DG A  35      94.239  78.377 188.407  1.00  0.00     0.292 A 
ATOM    775  N1   DG A  35      95.002  77.805 189.417  1.00  0.00    -0.153 N 
ATOM    776  O6   DG A  35      94.796  78.836 187.404  1.00  0.00    -0.265 OA
ATOM    777  C2   DG A  35      94.500  77.263 190.572  1.00  0.00     0.703 A 
ATOM    778  H1   DG A  35      96.000  77.791 189.282  1.00  0.00     0.187 HD
ATOM    779  N2   DG A  35      95.398  76.759 191.424  1.00  0.00    -0.233 N 
ATOM    780  N3   DG A  35      93.215  77.215 190.871  1.00  0.00    -0.044 NA
ATOM    781  H22  DG A  35      96.383  76.798 191.209  1.00  0.00     0.174 HD
ATOM    782  H21  DG A  35      95.079  76.348 192.290  1.00  0.00     0.174 HD
ATOM    783 2'HO  DG A  35      88.284  78.028 193.138  1.00  0.00     0.210 HD
ATOM    784  P    DC A  36      87.149  80.976 191.951  1.00  0.00     0.408 P 
ATOM    785  O5'  DC A  36      87.693  81.245 193.425  1.00  0.00    -0.287 OA
ATOM    786  OP2  DC A  36      88.076  81.622 190.987  1.00  0.00    -0.624 OA
ATOM    787  OP1  DC A  36      85.706  81.326 191.927  1.00  0.00    -0.624 OA
ATOM    788  C5'  DC A  36      87.737  82.569 193.960  1.00  0.00     0.216 C 
ATOM    789  C4'  DC A  36      88.517  82.588 195.254  1.00  0.00     0.180 C 
ATOM    790  C3'  DC A  36      89.770  81.714 195.275  1.00  0.00     0.198 C 
ATOM    791  O4'  DC A  36      87.660  82.080 196.316  1.00  0.00    -0.353 OA
ATOM    792  O3'  DC A  36      90.820  82.335 196.014  1.00  0.00    -0.279 OA
ATOM    793  C2'  DC A  36      89.290  80.428 195.939  1.00  0.00     0.199 C 
ATOM    794  P    DA A  37      91.996  83.109 195.237  1.00  0.00     0.408 P 
ATOM    795  OP2  DA A  37      91.390  83.964 194.185  1.00  0.00    -0.624 OA
ATOM    796  OP1  DA A  37      92.865  83.725 196.271  1.00  0.00    -0.624 OA
ATOM    797  O5'  DA A  37      92.820  81.947 194.523  1.00  0.00    -0.287 OA
ATOM    798  C5'  DA A  37      93.270  80.806 195.256  1.00  0.00     0.216 C 
ATOM    799  C4'  DA A  37      94.640  80.385 194.776  1.00  0.00     0.180 C 
ATOM    800  C3'  DA A  37      95.541  81.520 194.300  1.00  0.00     0.198 C 
ATOM    801  O4'  DA A  37      94.478  79.516 193.621  1.00  0.00    -0.353 OA
ATOM    802  O3'  DA A  37      96.320  82.054 195.368  1.00  0.00    -0.279 OA
ATOM    803  C2'  DA A  37      96.402  80.845 193.241  1.00  0.00     0.199 C 
ATOM    804  P    DT A  38      96.766  83.599 195.334  1.00  0.00     0.408 P 
ATOM    805  O5'  DT A  38      97.165  83.854 193.813  1.00  0.00    -0.287 OA
ATOM    806  OP1  DT A  38      97.989  83.727 196.167  1.00  0.00    -0.624 OA
ATOM    807  OP2  DT A  38      95.580  84.435 195.642  1.00  0.00    -0.624 OA
ATOM    808  C5'  DT A  38      98.443  83.465 193.310  1.00  0.00     0.216 C 
ATOM    809  C4'  DT A  38      98.593  83.909 191.874  1.00  0.00     0.180 C 
ATOM    810  C3'  DT A  38      98.390  85.398 191.632  1.00  0.00     0.198 C 
ATOM    811  O4'  DT A  38      97.567  83.270 191.071  1.00  0.00    -0.353 OA
ATOM    812  C2'  DT A  38      97.952  85.443 190.173  1.00  0.00     0.199 C 
ATOM    813  O3'  DT A  38      99.592  86.126 191.868  1.00  0.00    -0.279 OA
ATOM    814  O2'  DT A  38      99.062  85.346 189.300  1.00  0.00    -0.388 OA
ATOM    815  C1'  DT A  38      97.129  84.159 190.057  1.00  0.00     0.264 C 
ATOM    816 2'HO  DT A  38      99.390  86.237 189.167  1.00  0.00     0.210 HD
ATOM    817  N1   DT A  38      95.682  84.364 190.217  1.00  0.00    -0.280 N 
ATOM    818  C6   DT A  38      95.076  84.259 191.449  1.00  0.00     0.104 A 
ATOM    819  C2   DT A  38      94.945  84.664 189.086  1.00  0.00     0.331 A 
ATOM    820  C5   DT A  38      93.762  84.435 191.617  1.00  0.00     0.092 A 
ATOM    821  C4   DT A  38      92.932  84.743 190.495  1.00  0.00     0.250 A 
ATOM    822  N3   DT A  38      93.601  84.833 189.297  1.00  0.00    -0.275 N 
ATOM    823  O4   DT A  38      91.716  84.928 190.522  1.00  0.00    -0.268 OA
ATOM    824  H3   DT A  38      93.039  85.040 188.484  1.00  0.00     0.173 HD
ATOM    825  O2   DT A  38      95.443  84.773 187.980  1.00  0.00    -0.246 OA
ATOM    826  P    DT A  39      99.543  87.728 192.003  1.00  0.00     0.408 P 
ATOM    827  OP1  DT A  39     100.871  88.167 192.503  1.00  0.00    -0.624 OA
ATOM    828  OP2  DT A  39      98.318  88.101 192.755  1.00  0.00    -0.624 OA
ATOM    829  O5'  DT A  39      99.391  88.236 190.500  1.00  0.00    -0.287 OA
ATOM    830  C5'  DT A  39      98.340  89.124 190.126  1.00  0.00     0.216 C 
ATOM    831  C4'  DT A  39      98.192  89.148 188.623  1.00  0.00     0.180 C 
ATOM    832  C3'  DT A  39      97.509  90.385 188.057  1.00  0.00     0.198 C 
ATOM    833  O4'  DT A  39      97.343  88.040 188.216  1.00  0.00    -0.353 OA
ATOM    834  O3'  DT A  39      98.439  91.443 187.841  1.00  0.00    -0.279 OA
ATOM    835  C2'  DT A  39      96.906  89.859 186.762  1.00  0.00     0.199 C 
ATOM    836  P    DG A  40      97.972  92.971 188.037  1.00  0.00     0.408 P 
ATOM    837  OP1  DG A  40      99.189  93.818 187.951  1.00  0.00    -0.624 OA
ATOM    838  O5'  DG A  40      97.073  93.266 186.756  1.00  0.00    -0.287 OA
ATOM    839  OP2  DG A  40      97.107  93.051 189.243  1.00  0.00    -0.624 OA
ATOM    840  C5'  DG A  40      97.599  93.113 185.439  1.00  0.00     0.216 C 
ATOM    841  C4'  DG A  40      96.564  93.514 184.417  1.00  0.00     0.180 C 
ATOM    842  O4'  DG A  40      95.551  92.476 184.342  1.00  0.00    -0.353 OA
ATOM    843  C3'  DG A  40      95.790  94.784 184.740  1.00  0.00     0.198 C 
ATOM    844  C1'  DG A  40      94.271  93.065 184.192  1.00  0.00     0.262 C 
ATOM    845  C2'  DG A  40      94.476  94.567 183.999  1.00  0.00     0.199 C 
ATOM    846  N9   DG A  40      93.468  92.730 185.363  1.00  0.00    -0.293 N 
ATOM    847  O2'  DG A  40      94.622  94.832 182.616  1.00  0.00    -0.388 OA
ATOM    848 2'HO  DG A  40      95.418  95.355 182.518  1.00  0.00     0.210 HD
ATOM    849  C8   DG A  40      93.920  92.298 186.586  1.00  0.00     0.214 A 
ATOM    850  C4   DG A  40      92.099  92.786 185.455  1.00  0.00     0.187 A 
ATOM    851  N7   DG A  40      92.960  92.073 187.441  1.00  0.00    -0.234 NA
ATOM    852  C5   DG A  40      91.800  92.379 186.739  1.00  0.00     0.173 A 
ATOM    853  C6   DG A  40      90.440  92.330 187.141  1.00  0.00     0.292 A 
ATOM    854  N1   DG A  40      89.590  92.723 186.113  1.00  0.00    -0.153 N 
ATOM    855  O6   DG A  40      89.969  91.997 188.234  1.00  0.00    -0.265 OA
ATOM    856  C2   DG A  40      89.994  93.113 184.862  1.00  0.00     0.703 A 
ATOM    857  H1   DG A  40      88.600  92.720 186.306  1.00  0.00     0.187 HD
ATOM    858  N3   DG A  40      91.254  93.165 184.474  1.00  0.00    -0.044 NA
ATOM    859  N2   DG A  40      89.026  93.457 184.008  1.00  0.00    -0.233 N 
ATOM    860  H21  DG A  40      89.272  93.753 183.076  1.00  0.00     0.174 HD
ATOM    861  H22  DG A  40      88.056  93.421 184.293  1.00  0.00     0.174 HD
ATOM    862  O3'  DG A  40      96.482  95.947 184.294  1.00  0.00    -0.279 OA
ATOM    863  P    DA A  41      96.148  97.376 184.952  1.00  0.00     0.408 P 
ATOM    864  OP2  DA A  41      96.147  97.228 186.429  1.00  0.00    -0.624 OA
ATOM    865  OP1  DA A  41      97.046  98.374 184.317  1.00  0.00    -0.624 OA
ATOM    866  O5'  DA A  41      94.657  97.679 184.480  1.00  0.00    -0.287 OA
ATOM    867  C5'  DA A  41      94.341  97.846 183.098  1.00  0.00     0.216 C 
ATOM    868  C4'  DA A  41      92.932  98.368 182.947  1.00  0.00     0.180 C 
ATOM    869  C3'  DA A  41      92.544  99.473 183.920  1.00  0.00     0.198 C 
ATOM    870  O4'  DA A  41      91.999  97.288 183.218  1.00  0.00    -0.353 OA
ATOM    871  O3'  DA A  41      92.915 100.753 183.415  1.00  0.00    -0.279 OA
ATOM    872  C2'  DA A  41      91.034  99.302 184.042  1.00  0.00     0.199 C 
ATOM    873  P    DA A  42      92.863 102.039 184.378  1.00  0.00     0.408 P 
ATOM    874  O5'  DA A  42      91.309 102.373 184.487  1.00  0.00    -0.287 OA
ATOM    875  OP1  DA A  42      93.522 103.157 183.656  1.00  0.00    -0.624 OA
ATOM    876  OP2  DA A  42      93.357 101.641 185.722  1.00  0.00    -0.624 OA
ATOM    877  C5'  DA A  42      90.699 102.642 185.748  1.00  0.00     0.216 C 
ATOM    878  C4'  DA A  42      89.200 102.492 185.644  1.00  0.00     0.180 C 
ATOM    879  C3'  DA A  42      88.417 102.976 186.858  1.00  0.00     0.198 C 
ATOM    880  O4'  DA A  42      88.882 101.076 185.525  1.00  0.00    -0.353 OA
ATOM    881  O3'  DA A  42      88.075 104.356 186.744  1.00  0.00    -0.279 OA
ATOM    882  C2'  DA A  42      87.196 102.066 186.850  1.00  0.00     0.199 C 
ATOM    883  P    DG A  43      88.152 105.310 188.038  1.00  0.00     0.408 P 
ATOM    884  O5'  DG A  43      86.791 105.014 188.812  1.00  0.00    -0.287 OA
ATOM    885  OP1  DG A  43      88.110 106.712 187.552  1.00  0.00    -0.624 OA
ATOM    886  OP2  DG A  43      89.286 104.859 188.885  1.00  0.00    -0.624 OA
ATOM    887  C5'  DG A  43      85.532 105.129 188.149  1.00  0.00     0.216 C 
ATOM    888  C4'  DG A  43      84.436 104.527 188.998  1.00  0.00     0.180 C 
ATOM    889  C3'  DG A  43      84.364 105.028 190.435  1.00  0.00     0.198 C 
ATOM    890  O4'  DG A  43      84.667 103.099 189.128  1.00  0.00    -0.353 OA
ATOM    891  O3'  DG A  43      83.628 106.245 190.530  1.00  0.00    -0.279 OA
ATOM    892  C2'  DG A  43      83.676 103.872 191.147  1.00  0.00     0.199 C 
ATOM    893  P    DA A  44      83.991 107.312 191.679  1.00  0.00     0.408 P 
ATOM    894  OP1  DA A  44      83.196 108.536 191.403  1.00  0.00    -0.624 OA
ATOM    895  OP2  DA A  44      85.468 107.407 191.792  1.00  0.00    -0.624 OA
ATOM    896  O5'  DA A  44      83.429 106.648 193.015  1.00  0.00    -0.287 OA
ATOM    897  C5'  DA A  44      82.027 106.492 193.227  1.00  0.00     0.216 C 
ATOM    898  C4'  DA A  44      81.775 105.686 194.480  1.00  0.00     0.180 C 
ATOM    899  C3'  DA A  44      82.396 106.244 195.753  1.00  0.00     0.198 C 
ATOM    900  O4'  DA A  44      82.375 104.371 194.319  1.00  0.00    -0.353 OA
ATOM    901  O3'  DA A  44      81.533 107.187 196.385  1.00  0.00    -0.279 OA
ATOM    902  C2'  DA A  44      82.608 104.995 196.600  1.00  0.00     0.199 C 
ATOM    903  P    DG A  45      82.155 108.341 197.318  1.00  0.00     0.408 P 
ATOM    904  OP1  DG A  45      81.041 108.895 198.127  1.00  0.00    -0.624 OA
ATOM    905  OP2  DG A  45      82.962 109.246 196.462  1.00  0.00    -0.624 OA
ATOM    906  O5'  DG A  45      83.144 107.558 198.293  1.00  0.00    -0.287 OA
ATOM    907  C5'  DG A  45      82.693 107.063 199.553  1.00  0.00     0.216 C 
ATOM    908  C4'  DG A  45      83.716 106.118 200.136  1.00  0.00     0.180 C 
ATOM    909  O4'  DG A  45      84.510 106.836 201.121  1.00  0.00    -0.353 OA
ATOM    910  C3'  DG A  45      83.138 104.932 200.897  1.00  0.00     0.198 C 
ATOM    911  C1'  DG A  45      84.763 105.999 202.235  1.00  0.00     0.262 C 
ATOM    912  N9   DG A  45      84.132 106.595 203.409  1.00  0.00    -0.293 N 
ATOM    913  C2'  DG A  45      84.242 104.602 201.894  1.00  0.00     0.199 C 
ATOM    914  C8   DG A  45      84.759 107.245 204.444  1.00  0.00     0.214 A 
ATOM    915  C4   DG A  45      82.788 106.614 203.699  1.00  0.00     0.187 A 
ATOM    916  N7   DG A  45      83.934 107.672 205.360  1.00  0.00    -0.234 NA
ATOM    917  C5   DG A  45      82.682 107.279 204.902  1.00  0.00     0.173 A 
ATOM    918  C6   DG A  45      81.395 107.458 205.474  1.00  0.00     0.292 A 
ATOM    919  O6   DG A  45      81.091 108.012 206.535  1.00  0.00    -0.265 OA
ATOM    920  N1   DG A  45      80.401 106.903 204.677  1.00  0.00    -0.153 N 
ATOM    921  H1   DG A  45      79.450 106.983 205.004  1.00  0.00     0.187 HD
ATOM    922  C2   DG A  45      80.616 106.258 203.486  1.00  0.00     0.703 A 
ATOM    923  N2   DG A  45      79.531 105.790 202.865  1.00  0.00    -0.233 N 
ATOM    924  N3   DG A  45      81.805 106.082 202.944  1.00  0.00    -0.044 NA
ATOM    925  H22  DG A  45      78.613 105.913 203.267  1.00  0.00     0.174 HD
ATOM    926  H21  DG A  45      79.645 105.306 201.985  1.00  0.00     0.174 HD
ATOM    927  O2'  DG A  45      85.283 103.865 201.283  1.00  0.00    -0.388 OA
ATOM    928 2'HO  DG A  45      85.024 102.942 201.315  1.00  0.00     0.210 HD
ATOM    929  O3'  DG A  45      82.842 103.840 200.032  1.00  0.00    -0.279 OA
ATOM    930  P    DG A  46      81.703 102.784 200.446  1.00  0.00     0.408 P 
ATOM    931  OP2  DG A  46      80.380 103.451 200.323  1.00  0.00    -0.624 OA
ATOM    932  O5'  DG A  46      81.975 102.514 201.994  1.00  0.00    -0.287 OA
ATOM    933  OP1  DG A  46      81.963 101.527 199.698  1.00  0.00    -0.624 OA
ATOM    934  C5'  DG A  46      81.647 101.262 202.596  1.00  0.00     0.216 C 
ATOM    935  C4'  DG A  46      82.890 100.611 203.159  1.00  0.00     0.180 C 
ATOM    936  O4'  DG A  46      83.858 101.634 203.488  1.00  0.00    -0.353 OA
ATOM    937  C3'  DG A  46      82.694  99.860 204.469  1.00  0.00     0.198 C 
ATOM    938  C1'  DG A  46      84.693 101.171 204.528  1.00  0.00     0.262 C 
ATOM    939  N9   DG A  46      84.847 102.246 205.504  1.00  0.00    -0.293 N 
ATOM    940  C2'  DG A  46      84.082  99.893 205.114  1.00  0.00     0.199 C 
ATOM    941  C4   DG A  46      83.870 103.111 205.937  1.00  0.00     0.187 A 
ATOM    942  C8   DG A  46      85.994 102.593 206.173  1.00  0.00     0.214 A 
ATOM    943  C5   DG A  46      84.491 103.936 206.851  1.00  0.00     0.173 A 
ATOM    944  N3   DG A  46      82.584 103.122 205.533  1.00  0.00    -0.044 NA
ATOM    945  N7   DG A  46      85.831 103.598 206.991  1.00  0.00    -0.234 NA
ATOM    946  C6   DG A  46      83.727 104.951 207.486  1.00  0.00     0.292 A 
ATOM    947  N1   DG A  46      82.407 104.940 207.054  1.00  0.00    -0.153 N 
ATOM    948  O6   DG A  46      84.092 105.782 208.324  1.00  0.00    -0.265 OA
ATOM    949  H1   DG A  46      81.790 105.628 207.455  1.00  0.00     0.187 HD
ATOM    950  C2   DG A  46      81.887 104.070 206.131  1.00  0.00     0.703 A 
ATOM    951  N2   DG A  46      80.594 104.220 205.842  1.00  0.00    -0.233 N 
ATOM    952  H22  DG A  46      80.045 104.930 206.302  1.00  0.00     0.174 HD
ATOM    953  H21  DG A  46      80.173 103.598 205.166  1.00  0.00     0.174 HD
ATOM    954  O2'  DG A  46      84.865  98.792 204.693  1.00  0.00    -0.388 OA
ATOM    955 2'HO  DG A  46      85.016  98.889 203.751  1.00  0.00     0.210 HD
ATOM    956  O3'  DG A  46      82.253  98.523 204.243  1.00  0.00    -0.279 OA
ATOM    957  P    DT A  47      80.684  98.212 204.073  1.00  0.00     0.408 P 
ATOM    958  OP2  DT A  47      80.311  98.432 202.653  1.00  0.00    -0.624 OA
ATOM    959  O5'  DT A  47      79.964  99.331 204.951  1.00  0.00    -0.287 OA
ATOM    960  OP1  DT A  47      80.421  96.892 204.702  1.00  0.00    -0.624 OA
ATOM    961  C5'  DT A  47      79.912  99.233 206.374  1.00  0.00     0.216 C 
ATOM    962  C4'  DT A  47      79.106 100.376 206.945  1.00  0.00     0.180 C 
ATOM    963  O4'  DT A  47      79.455 101.600 206.238  1.00  0.00    -0.353 OA
ATOM    964  C3'  DT A  47      77.596 100.246 206.788  1.00  0.00     0.198 C 
ATOM    965  C1'  DT A  47      78.282 102.340 205.953  1.00  0.00     0.264 C 
ATOM    966  N1   DT A  47      78.076 102.340 204.497  1.00  0.00    -0.280 N 
ATOM    967  C2'  DT A  47      77.141 101.698 206.740  1.00  0.00     0.199 C 
ATOM    968  C2   DT A  47      77.716 103.531 203.893  1.00  0.00     0.331 A 
ATOM    969  C6   DT A  47      78.235 101.191 203.755  1.00  0.00     0.104 A 
ATOM    970  O2   DT A  47      77.575 104.573 204.510  1.00  0.00    -0.246 OA
ATOM    971  N3   DT A  47      77.528 103.460 202.536  1.00  0.00    -0.275 N 
ATOM    972  H3   DT A  47      77.264 104.312 202.065  1.00  0.00     0.173 HD
ATOM    973  C4   DT A  47      77.663 102.348 201.738  1.00  0.00     0.250 A 
ATOM    974  O4   DT A  47      77.429 102.437 200.534  1.00  0.00    -0.268 OA
ATOM    975  C5   DT A  47      78.046 101.160 202.433  1.00  0.00     0.092 A 
ATOM    976  O2'  DT A  47      77.108 102.271 208.033  1.00  0.00    -0.388 OA
ATOM    977 2'HO  DT A  47      77.071 101.547 208.658  1.00  0.00     0.210 HD
ATOM    978  O3'  DT A  47      77.021  99.526 207.876  1.00  0.00    -0.279 OA
ATOM    979  P    DC A  48      75.559  98.873 207.721  1.00  0.00     0.408 P 
ATOM    980  O5'  DC A  48      74.566 100.075 208.048  1.00  0.00    -0.287 OA
ATOM    981  OP1  DC A  48      75.414  97.853 208.791  1.00  0.00    -0.624 OA
ATOM    982  OP2  DC A  48      75.360  98.482 206.303  1.00  0.00    -0.624 OA
ATOM    983  C5'  DC A  48      74.593 100.726 209.316  1.00  0.00     0.216 C 
ATOM    984  C4'  DC A  48      73.699 101.943 209.300  1.00  0.00     0.180 C 
ATOM    985  O4'  DC A  48      74.216 102.900 208.336  1.00  0.00    -0.353 OA
ATOM    986  C3'  DC A  48      72.266 101.695 208.851  1.00  0.00     0.198 C 
ATOM    987  C1'  DC A  48      73.139 103.538 207.669  1.00  0.00     0.264 C 
ATOM    988  C2'  DC A  48      71.847 103.068 208.339  1.00  0.00     0.199 C 
ATOM    989  N1   DC A  48      73.217 103.209 206.237  1.00  0.00    -0.278 N 
ATOM    990  O2'  DC A  48      71.549 103.942 209.410  1.00  0.00    -0.388 OA
ATOM    991 2'HO  DC A  48      71.467 103.397 210.194  1.00  0.00     0.210 HD
ATOM    992  C2   DC A  48      72.705 104.117 205.305  1.00  0.00     0.352 A 
ATOM    993  C6   DC A  48      73.785 102.037 205.817  1.00  0.00     0.102 A 
ATOM    994  O2   DC A  48      72.190 105.167 205.710  1.00  0.00    -0.244 OA
ATOM    995  N3   DC A  48      72.782 103.826 203.987  1.00  0.00    -0.177 NA
ATOM    996  C4   DC A  48      73.342 102.683 203.588  1.00  0.00     0.128 A 
ATOM    997  C5   DC A  48      73.870 101.737 204.515  1.00  0.00     0.067 A 
ATOM    998  N4   DC A  48      73.398 102.441 202.278  1.00  0.00    -0.384 N 
ATOM    999  H41  DC A  48      73.815 101.587 201.936  1.00  0.00     0.157 HD
ATOM   1000  H42  DC A  48      73.023 103.116 201.628  1.00  0.00     0.157 HD
ATOM   1001  O3'  DC A  48      71.450 101.240 209.925  1.00  0.00    -0.279 OA
ATOM   1002  P    DA A  49      70.104 100.418 209.612  1.00  0.00     0.408 P 
ATOM   1003  O5'  DA A  49      69.193 101.458 208.821  1.00  0.00    -0.287 OA
ATOM   1004  OP1  DA A  49      69.452 100.127 210.915  1.00  0.00    -0.624 OA
ATOM   1005  OP2  DA A  49      70.441  99.300 208.695  1.00  0.00    -0.624 OA
ATOM   1006  C5'  DA A  49      68.809 102.697 209.415  1.00  0.00     0.216 C 
ATOM   1007  C4'  DA A  49      67.936 103.483 208.464  1.00  0.00     0.180 C 
ATOM   1008  O4'  DA A  49      68.764 104.105 207.449  1.00  0.00    -0.353 OA
ATOM   1009  C3'  DA A  49      66.939 102.667 207.657  1.00  0.00     0.198 C 
ATOM   1010  C1'  DA A  49      68.025 104.224 206.246  1.00  0.00     0.262 C 
ATOM   1011  C2'  DA A  49      66.653 103.584 206.473  1.00  0.00     0.199 C 
ATOM   1012  N9   DA A  49      68.791 103.594 205.170  1.00  0.00    -0.294 N 
ATOM   1013  O2'  DA A  49      65.734 104.603 206.821  1.00  0.00    -0.388 OA
ATOM   1014 2'HO  DA A  49      64.856 104.234 206.715  1.00  0.00     0.210 HD
ATOM   1015  C4   DA A  49      68.754 103.940 203.840  1.00  0.00     0.167 A 
ATOM   1016  C8   DA A  49      69.682 102.553 205.262  1.00  0.00     0.214 A 
ATOM   1017  N3   DA A  49      68.020 104.910 203.271  1.00  0.00    -0.222 NA
ATOM   1018  C5   DA A  49      69.632 103.082 203.203  1.00  0.00     0.149 A 
ATOM   1019  C2   DA A  49      68.239 104.957 201.959  1.00  0.00     0.237 A 
ATOM   1020  N1   DA A  49      69.050 104.199 201.208  1.00  0.00    -0.222 NA
ATOM   1021  C6   DA A  49      69.774 103.234 201.812  1.00  0.00     0.155 A 
ATOM   1022  N6   DA A  49      70.582 102.481 201.064  1.00  0.00    -0.382 N 
ATOM   1023  H62  DA A  49      70.645 102.638 200.067  1.00  0.00     0.157 HD
ATOM   1024  H61  DA A  49      71.132 101.753 201.495  1.00  0.00     0.157 HD
ATOM   1025  N7   DA A  49      70.213 102.210 204.112  1.00  0.00    -0.236 NA
ATOM   1026  O3'  DA A  49      65.771 102.365 208.416  1.00  0.00    -0.279 OA
ATOM   1027  P    DG A  50      65.026 100.953 208.213  1.00  0.00     0.408 P 
ATOM   1028  O5'  DG A  50      63.896 101.265 207.134  1.00  0.00    -0.287 OA
ATOM   1029  OP1  DG A  50      64.354 100.624 209.496  1.00  0.00    -0.624 OA
ATOM   1030  OP2  DG A  50      65.978  99.982 207.616  1.00  0.00    -0.624 OA
ATOM   1031  C5'  DG A  50      62.776 102.087 207.457  1.00  0.00     0.216 C 
ATOM   1032  C4'  DG A  50      62.247 102.761 206.213  1.00  0.00     0.180 C 
ATOM   1033  O4'  DG A  50      63.333 103.481 205.563  1.00  0.00    -0.353 OA
ATOM   1034  C3'  DG A  50      61.718 101.828 205.132  1.00  0.00     0.198 C 
ATOM   1035  C1'  DG A  50      63.227 103.337 204.156  1.00  0.00     0.262 C 
ATOM   1036  N9   DG A  50      64.369 102.561 203.684  1.00  0.00    -0.293 N 
ATOM   1037  C2'  DG A  50      61.882 102.670 203.876  1.00  0.00     0.199 C 
ATOM   1038  C4   DG A  50      65.040 102.726 202.497  1.00  0.00     0.187 A 
ATOM   1039  C8   DG A  50      64.984 101.519 204.334  1.00  0.00     0.214 A 
ATOM   1040  N3   DG A  50      64.760 103.645 201.548  1.00  0.00    -0.044 NA
ATOM   1041  C5   DG A  50      66.029 101.765 202.498  1.00  0.00     0.173 A 
ATOM   1042  C2   DG A  50      65.581 103.554 200.517  1.00  0.00     0.703 A 
ATOM   1043  N2   DG A  50      65.442 104.391 199.485  1.00  0.00    -0.233 N 
ATOM   1044  N1   DG A  50      66.596 102.638 200.422  1.00  0.00    -0.153 N 
ATOM   1045  H22  DG A  50      66.069 104.341 198.696  1.00  0.00     0.174 HD
ATOM   1046  H21  DG A  50      64.707 105.084 199.509  1.00  0.00     0.174 HD
ATOM   1047  H1   DG A  50      67.173 102.651 199.595  1.00  0.00     0.187 HD
ATOM   1048  C6   DG A  50      66.901 101.682 201.383  1.00  0.00     0.292 A 
ATOM   1049  O6   DG A  50      67.839 100.899 201.195  1.00  0.00    -0.265 OA
ATOM   1050  N7   DG A  50      65.982 101.012 203.663  1.00  0.00    -0.234 NA
ATOM   1051  O2'  DG A  50      60.884 103.671 203.794  1.00  0.00    -0.388 OA
ATOM   1052 2'HO  DG A  50      60.141 103.364 204.314  1.00  0.00     0.210 HD
ATOM   1053  O3'  DG A  50      60.363 101.452 205.369  1.00  0.00    -0.279 OA
ATOM   1054  P    DC A  51      59.818 100.042 204.817  1.00  0.00     0.408 P 
ATOM   1055  OP1  DC A  51      58.370  99.971 205.136  1.00  0.00    -0.624 OA
ATOM   1056  OP2  DC A  51      60.729  98.969 205.292  1.00  0.00    -0.624 OA
ATOM   1057  O5'  DC A  51      59.975 100.163 203.235  1.00  0.00    -0.287 OA
ATOM   1058  C5'  DC A  51      59.227 101.127 202.498  1.00  0.00     0.216 C 
ATOM   1059  C4'  DC A  51      59.809 101.298 201.113  1.00  0.00     0.180 C 
ATOM   1060  C3'  DC A  51      59.768 100.070 200.219  1.00  0.00     0.198 C 
ATOM   1061  O4'  DC A  51      61.227 101.582 201.205  1.00  0.00    -0.353 OA
ATOM   1062  C2'  DC A  51      60.830 100.400 199.174  1.00  0.00     0.199 C 
ATOM   1063  O3'  DC A  51      58.478  99.872 199.645  1.00  0.00    -0.279 OA
ATOM   1064  O2'  DC A  51      60.323 101.284 198.192  1.00  0.00    -0.388 OA
ATOM   1065  C1'  DC A  51      61.866 101.149 200.016  1.00  0.00     0.264 C 
ATOM   1066 2'HO  DC A  51      59.367 101.239 198.248  1.00  0.00     0.210 HD
ATOM   1067  N1   DC A  51      63.029 100.322 200.377  1.00  0.00    -0.278 N 
ATOM   1068  C6   DC A  51      63.228  99.906 201.665  1.00  0.00     0.102 A 
ATOM   1069  C2   DC A  51      63.932  99.962 199.374  1.00  0.00     0.352 A 
ATOM   1070  C5   DC A  51      64.286  99.150 201.991  1.00  0.00     0.067 A 
ATOM   1071  C4   DC A  51      65.186  98.796 200.945  1.00  0.00     0.128 A 
ATOM   1072  N4   DC A  51      66.254  98.046 201.204  1.00  0.00    -0.384 N 
ATOM   1073  N3   DC A  51      64.998  99.196 199.686  1.00  0.00    -0.177 NA
ATOM   1074  H42  DC A  51      66.893  97.808 200.458  1.00  0.00     0.157 HD
ATOM   1075  H41  DC A  51      66.432  97.725 202.144  1.00  0.00     0.157 HD
ATOM   1076  O2   DC A  51      63.733 100.359 198.217  1.00  0.00    -0.244 OA
ATOM   1077  P    DC A  52      58.049  98.409 199.132  1.00  0.00     0.408 P 
ATOM   1078  OP1  DC A  52      56.608  98.470 198.777  1.00  0.00    -0.624 OA
ATOM   1079  O5'  DC A  52      58.885  98.210 197.790  1.00  0.00    -0.287 OA
ATOM   1080  OP2  DC A  52      58.518  97.405 200.121  1.00  0.00    -0.624 OA
ATOM   1081  C5'  DC A  52      58.612  98.994 196.631  1.00  0.00     0.216 C 
ATOM   1082  C4'  DC A  52      59.242  98.363 195.412  1.00  0.00     0.180 C 
ATOM   1083  O4'  DC A  52      60.655  98.715 195.373  1.00  0.00    -0.353 OA
ATOM   1084  C3'  DC A  52      59.232  96.840 195.378  1.00  0.00     0.198 C 
ATOM   1085  C1'  DC A  52      61.419  97.587 194.976  1.00  0.00     0.264 C 
ATOM   1086  N1   DC A  52      62.228  97.146 196.125  1.00  0.00    -0.278 N 
ATOM   1087  C2'  DC A  52      60.426  96.535 194.485  1.00  0.00     0.199 C 
ATOM   1088  C2   DC A  52      63.411  96.440 195.888  1.00  0.00     0.352 A 
ATOM   1089  C6   DC A  52      61.832  97.420 197.404  1.00  0.00     0.102 A 
ATOM   1090  N3   DC A  52      64.162  96.039 196.938  1.00  0.00    -0.177 NA
ATOM   1091  O2   DC A  52      63.744  96.198 194.719  1.00  0.00    -0.244 OA
ATOM   1092  C4   DC A  52      63.771  96.318 198.182  1.00  0.00     0.128 A 
ATOM   1093  N4   DC A  52      64.549  95.912 199.185  1.00  0.00    -0.384 N 
ATOM   1094  C5   DC A  52      62.567  97.031 198.453  1.00  0.00     0.067 A 
ATOM   1095  H42  DC A  52      65.406  95.415 198.982  1.00  0.00     0.157 HD
ATOM   1096  H41  DC A  52      64.292  96.104 200.141  1.00  0.00     0.157 HD
ATOM   1097  O2'  DC A  52      60.128  96.789 193.125  1.00  0.00    -0.388 OA
ATOM   1098 2'HO  DC A  52      59.174  96.764 193.042  1.00  0.00     0.210 HD
ATOM   1099  O3'  DC A  52      58.012  96.324 194.855  1.00  0.00    -0.279 OA
ATOM   1100  P    DC A  53      57.553  94.829 195.230  1.00  0.00     0.408 P 
ATOM   1101  OP2  DC A  53      57.699  94.647 196.697  1.00  0.00    -0.624 OA
ATOM   1102  OP1  DC A  53      56.234  94.595 194.588  1.00  0.00    -0.624 OA
ATOM   1103  O5'  DC A  53      58.630  93.903 194.507  1.00  0.00    -0.287 OA
ATOM   1104  C5'  DC A  53      58.736  93.878 193.084  1.00  0.00     0.216 C 
ATOM   1105  C4'  DC A  53      59.933  93.058 192.660  1.00  0.00     0.180 C 
ATOM   1106  O4'  DC A  53      61.149  93.678 193.159  1.00  0.00    -0.353 OA
ATOM   1107  C3'  DC A  53      60.007  91.646 193.219  1.00  0.00     0.198 C 
ATOM   1108  C1'  DC A  53      62.113  92.673 193.431  1.00  0.00     0.264 C 
ATOM   1109  N1   DC A  53      62.504  92.768 194.848  1.00  0.00    -0.278 N 
ATOM   1110  C2'  DC A  53      61.487  91.327 193.067  1.00  0.00     0.199 C 
ATOM   1111  C6   DC A  53      61.699  93.393 195.760  1.00  0.00     0.102 A 
ATOM   1112  C2   DC A  53      63.716  92.202 195.251  1.00  0.00     0.352 A 
ATOM   1113  C5   DC A  53      62.052  93.482 197.048  1.00  0.00     0.067 A 
ATOM   1114  C4   DC A  53      63.293  92.894 197.429  1.00  0.00     0.128 A 
ATOM   1115  N3   DC A  53      64.084  92.280 196.549  1.00  0.00    -0.177 NA
ATOM   1116  N4   DC A  53      63.700  92.948 198.696  1.00  0.00    -0.384 N 
ATOM   1117  H41  DC A  53      63.133  93.404 199.396  1.00  0.00     0.157 HD
ATOM   1118  H42  DC A  53      64.583  92.530 198.955  1.00  0.00     0.157 HD
ATOM   1119  O2   DC A  53      64.428  91.641 194.406  1.00  0.00    -0.244 OA
ATOM   1120  O2'  DC A  53      61.812  91.025 191.722  1.00  0.00    -0.388 OA
ATOM   1121 2'HO  DC A  53      60.997  90.759 191.294  1.00  0.00     0.210 HD
ATOM   1122  O3'  DC A  53      59.175  90.740 192.500  1.00  0.00    -0.279 OA
ATOM   1123  P    DC A  54      58.671  89.386 193.210  1.00  0.00     0.408 P 
ATOM   1124  OP2  DC A  54      58.170  89.726 194.566  1.00  0.00    -0.624 OA
ATOM   1125  O5'  DC A  54      59.998  88.519 193.376  1.00  0.00    -0.287 OA
ATOM   1126  OP1  DC A  54      57.777  88.688 192.250  1.00  0.00    -0.624 OA
ATOM   1127  C5'  DC A  54      60.700  88.029 192.236  1.00  0.00     0.216 C 
ATOM   1128  C4'  DC A  54      61.946  87.287 192.666  1.00  0.00     0.180 C 
ATOM   1129  O4'  DC A  54      62.858  88.216 193.310  1.00  0.00    -0.353 OA
ATOM   1130  C3'  DC A  54      61.741  86.198 193.707  1.00  0.00     0.198 C 
ATOM   1131  C1'  DC A  54      63.579  87.545 194.329  1.00  0.00     0.264 C 
ATOM   1132  N1   DC A  54      63.341  88.239 195.605  1.00  0.00    -0.278 N 
ATOM   1133  C2'  DC A  54      63.125  86.084 194.335  1.00  0.00     0.199 C 
ATOM   1134  C6   DC A  54      62.215  88.991 195.796  1.00  0.00     0.102 A 
ATOM   1135  C2   DC A  54      64.287  88.117 196.625  1.00  0.00     0.352 A 
ATOM   1136  C5   DC A  54      61.996  89.626 196.954  1.00  0.00     0.067 A 
ATOM   1137  C4   DC A  54      62.980  89.483 197.976  1.00  0.00     0.128 A 
ATOM   1138  N4   DC A  54      62.820  90.091 199.150  1.00  0.00    -0.384 N 
ATOM   1139  N3   DC A  54      64.078  88.748 197.801  1.00  0.00    -0.177 NA
ATOM   1140  H41  DC A  54      62.005  90.658 199.328  1.00  0.00     0.157 HD
ATOM   1141  H42  DC A  54      63.530  89.983 199.864  1.00  0.00     0.157 HD
ATOM   1142  O2   DC A  54      65.300  87.430 196.427  1.00  0.00    -0.244 OA
ATOM   1143  O2'  DC A  54      64.000  85.337 193.511  1.00  0.00    -0.388 OA
ATOM   1144 2'HO  DC A  54      63.515  85.122 192.713  1.00  0.00     0.210 HD
ATOM   1145  O3'  DC A  54      61.310  84.976 193.115  1.00  0.00    -0.279 OA
ATOM   1146  P    DC A  55      60.559  83.873 194.013  1.00  0.00     0.408 P 
ATOM   1147  OP2  DC A  55      59.540  84.557 194.848  1.00  0.00    -0.624 OA
ATOM   1148  OP1  DC A  55      60.147  82.768 193.109  1.00  0.00    -0.624 OA
ATOM   1149  O5'  DC A  55      61.699  83.319 194.981  1.00  0.00    -0.287 OA
ATOM   1150  C5'  DC A  55      62.865  82.684 194.457  1.00  0.00     0.216 C 
ATOM   1151  C4'  DC A  55      63.763  82.230 195.583  1.00  0.00     0.180 C 
ATOM   1152  C3'  DC A  55      63.057  81.592 196.770  1.00  0.00     0.182 C 
ATOM   1153  O4'  DC A  55      64.433  83.388 196.148  1.00  0.00    -0.353 OA
ATOM   1154  C2'  DC A  55      64.045  81.827 197.907  1.00  0.00     0.198 C 
ATOM   1155  O3'  DC A  55      62.787  80.202 196.557  1.00  0.00    -0.390 OA
ATOM   1156  C1'  DC A  55      64.614  83.199 197.540  1.00  0.00     0.264 C 
ATOM   1157  O2'  DC A  55      65.096  80.878 197.876  1.00  0.00    -0.388 OA
ATOM   1158  N1   DC A  55      63.965  84.316 198.246  1.00  0.00    -0.278 N 
ATOM   1159  C2   DC A  55      64.562  84.816 199.407  1.00  0.00     0.352 A 
ATOM   1160  C6   DC A  55      62.801  84.859 197.781  1.00  0.00     0.102 A 
ATOM   1161  N3   DC A  55      63.977  85.843 200.061  1.00  0.00    -0.177 NA
ATOM   1162  O2   DC A  55      65.616  84.303 199.810  1.00  0.00    -0.244 OA
ATOM   1163  C4   DC A  55      62.842  86.368 199.599  1.00  0.00     0.128 A 
ATOM   1164  N4   DC A  55      62.304  87.379 200.278  1.00  0.00    -0.384 N 
ATOM   1165  C5   DC A  55      62.210  85.877 198.419  1.00  0.00     0.067 A 
ATOM   1166  H41  DC A  55      61.445  87.806 199.964  1.00  0.00     0.157 HD
ATOM   1167  H42  DC A  55      62.767  87.719 201.109  1.00  0.00     0.157 HD
ATOM   1168 2'HO  DC A  55      64.735  80.073 197.501  1.00  0.00     0.210 HD
ATOM   1169 3'HO  DC A  55      62.345  80.127 195.708  1.00  0.00     0.210 HD
ATOM   1170  O2'  DA A  44      81.401 104.584 197.215  1.00  0.00    -0.388 OA
ATOM   1171  C1'  DA A  44      82.987 103.971 195.531  1.00  0.00     0.262 C 
ATOM   1172 2'HO  DA A  44      80.803 105.331 197.180  1.00  0.00     0.210 HD
ATOM   1173  N9   DA A  44      84.427 103.861 195.304  1.00  0.00    -0.294 N 
ATOM   1174  C4   DA A  44      85.310 103.103 196.034  1.00  0.00     0.167 A 
ATOM   1175  C8   DA A  44      85.177 104.478 194.332  1.00  0.00     0.214 A 
ATOM   1176  N3   DA A  44      85.033 102.322 197.093  1.00  0.00    -0.222 NA
ATOM   1177  C5   DA A  44      86.549 103.304 195.453  1.00  0.00     0.149 A 
ATOM   1178  C2   DA A  44      86.139 101.736 197.546  1.00  0.00     0.237 A 
ATOM   1179  N1   DA A  44      87.395 101.832 197.090  1.00  0.00    -0.222 NA
ATOM   1180  C6   DA A  44      87.637 102.623 196.023  1.00  0.00     0.155 A 
ATOM   1181  N6   DA A  44      88.887 102.714 195.568  1.00  0.00    -0.382 N 
ATOM   1182  H61  DA A  44      89.092 103.298 194.770  1.00  0.00     0.157 HD
ATOM   1183  H62  DA A  44      89.628 102.194 196.016  1.00  0.00     0.157 HD
ATOM   1184  N7   DA A  44      86.451 104.176 194.377  1.00  0.00    -0.236 NA
ATOM   1185  O2'  DG A  43      82.280 103.881 190.906  1.00  0.00    -0.388 OA
ATOM   1186  C1'  DG A  43      84.289 102.671 190.426  1.00  0.00     0.262 C 
ATOM   1187 2'HO  DG A  43      82.011 104.800 190.893  1.00  0.00     0.210 HD
ATOM   1188  N9   DG A  43      85.468 102.126 191.094  1.00  0.00    -0.293 N 
ATOM   1189  C4   DG A  43      85.491 101.452 192.292  1.00  0.00     0.187 A 
ATOM   1190  C8   DG A  43      86.768 102.181 190.657  1.00  0.00     0.214 A 
ATOM   1191  N3   DG A  43      84.422 101.177 193.069  1.00  0.00    -0.044 NA
ATOM   1192  C5   DG A  43      86.815 101.134 192.506  1.00  0.00     0.173 A 
ATOM   1193  C2   DG A  43      84.764 100.515 194.160  1.00  0.00     0.703 A 
ATOM   1194  N1   DG A  43      86.049 100.151 194.467  1.00  0.00    -0.153 N 
ATOM   1195  N2   DG A  43      83.827 100.163 195.045  1.00  0.00    -0.233 N 
ATOM   1196  H1   DG A  43      86.198  99.647 195.328  1.00  0.00     0.187 HD
ATOM   1197  C6   DG A  43      87.165 100.421 193.683  1.00  0.00     0.292 A 
ATOM   1198  O6   DG A  43      88.282 100.044 194.053  1.00  0.00    -0.265 OA
ATOM   1199  H21  DG A  43      82.863 100.408 194.868  1.00  0.00     0.174 HD
ATOM   1200  H22  DG A  43      84.078  99.658 195.882  1.00  0.00     0.174 HD
ATOM   1201  N7   DG A  43      87.609 101.599 191.466  1.00  0.00    -0.234 NA
ATOM   1202  O2'  DA A  42      86.260 102.473 185.868  1.00  0.00    -0.388 OA
ATOM   1203  C1'  DA A  42      87.828 100.747 186.412  1.00  0.00     0.262 C 
ATOM   1204 2'HO  DA A  42      86.302 103.429 185.831  1.00  0.00     0.210 HD
ATOM   1205  N9   DA A  42      88.384  99.962 187.514  1.00  0.00    -0.294 N 
ATOM   1206  C4   DA A  42      87.692  99.444 188.583  1.00  0.00     0.167 A 
ATOM   1207  C8   DA A  42      89.694  99.594 187.703  1.00  0.00     0.214 A 
ATOM   1208  N3   DA A  42      86.375  99.547 188.830  1.00  0.00    -0.222 NA
ATOM   1209  C5   DA A  42      88.633  98.793 189.361  1.00  0.00     0.149 A 
ATOM   1210  C2   DA A  42      86.060  98.923 189.963  1.00  0.00     0.237 A 
ATOM   1211  N1   DA A  42      86.854  98.256 190.813  1.00  0.00    -0.222 NA
ATOM   1212  C6   DA A  42      88.172  98.172 190.534  1.00  0.00     0.155 A 
ATOM   1213  N6   DA A  42      88.963  97.509 191.378  1.00  0.00    -0.382 N 
ATOM   1214  H61  DA A  42      89.951  97.437 191.184  1.00  0.00     0.157 HD
ATOM   1215  H62  DA A  42      88.579  97.082 192.211  1.00  0.00     0.157 HD
ATOM   1216  N7   DA A  42      89.895  98.894 188.793  1.00  0.00    -0.236 NA
ATOM   1217  O2'  DA A  41      90.359  99.892 182.947  1.00  0.00    -0.388 OA
ATOM   1218  C1'  DA A  41      90.890  97.783 183.945  1.00  0.00     0.262 C 
ATOM   1219 2'HO  DA A  41      90.052 100.751 183.240  1.00  0.00     0.210 HD
ATOM   1220  N9   DA A  41      90.855  97.108 185.242  1.00  0.00    -0.294 N 
ATOM   1221  C8   DA A  41      91.919  96.660 185.986  1.00  0.00     0.214 A 
ATOM   1222  C4   DA A  41      89.731  96.790 185.965  1.00  0.00     0.167 A 
ATOM   1223  N7   DA A  41      91.571  96.084 187.112  1.00  0.00    -0.236 NA
ATOM   1224  C5   DA A  41      90.185  96.161 187.110  1.00  0.00     0.149 A 
ATOM   1225  C6   DA A  41      89.212  95.729 188.030  1.00  0.00     0.155 A 
ATOM   1226  N6   DA A  41      89.498  95.106 189.173  1.00  0.00    -0.382 N 
ATOM   1227  N1   DA A  41      87.917  95.960 187.728  1.00  0.00    -0.222 NA
ATOM   1228  H61  DA A  41      90.461  94.922 189.415  1.00  0.00     0.157 HD
ATOM   1229  H62  DA A  41      88.755  94.819 189.795  1.00  0.00     0.157 HD
ATOM   1230  C2   DA A  41      87.628  96.584 186.577  1.00  0.00     0.237 A 
ATOM   1231  N3   DA A  41      88.452  97.034 185.634  1.00  0.00    -0.222 NA
ATOM   1232  C1'  DT A  39      96.450  88.468 187.201  1.00  0.00     0.264 C 
ATOM   1233  O2'  DT A  39      97.891  89.721 185.756  1.00  0.00    -0.388 OA
ATOM   1234  N1   DT A  39      95.082  88.437 187.740  1.00  0.00    -0.280 N 
ATOM   1235  C2   DT A  39      94.039  88.676 186.865  1.00  0.00     0.331 A 
ATOM   1236  C6   DT A  39      94.845  88.184 189.072  1.00  0.00     0.104 A 
ATOM   1237  O2   DT A  39      94.205  88.897 185.679  1.00  0.00    -0.246 OA
ATOM   1238  N3   DT A  39      92.789  88.645 187.429  1.00  0.00    -0.275 N 
ATOM   1239  C4   DT A  39      92.481  88.401 188.747  1.00  0.00     0.250 A 
ATOM   1240  H3   DT A  39      92.013  88.828 186.810  1.00  0.00     0.173 HD
ATOM   1241  O4   DT A  39      91.304  88.407 189.104  1.00  0.00    -0.268 OA
ATOM   1242  C5   DT A  39      93.613  88.161 189.588  1.00  0.00     0.092 A 
ATOM   1243 2'HO  DT A  39      98.554  90.389 185.929  1.00  0.00     0.210 HD
ATOM   1244  O2'  DA A  37      97.440  80.083 193.830  1.00  0.00    -0.388 OA
ATOM   1245  C1'  DA A  37      95.393  79.890 192.608  1.00  0.00     0.262 C 
ATOM   1246 2'HO  DA A  37      97.534  80.396 194.731  1.00  0.00     0.210 HD
ATOM   1247  N9   DA A  37      94.641  80.481 191.502  1.00  0.00    -0.294 N 
ATOM   1248  C8   DA A  37      93.308  80.809 191.462  1.00  0.00     0.214 A 
ATOM   1249  C4   DA A  37      95.148  80.825 190.273  1.00  0.00     0.167 A 
ATOM   1250  N7   DA A  37      92.927  81.331 190.322  1.00  0.00    -0.236 NA
ATOM   1251  C5   DA A  37      94.086  81.347 189.559  1.00  0.00     0.149 A 
ATOM   1252  C6   DA A  37      94.351  81.780 188.249  1.00  0.00     0.155 A 
ATOM   1253  N1   DA A  37      95.615  81.657 187.790  1.00  0.00    -0.222 NA
ATOM   1254  N6   DA A  37      93.431  82.299 187.439  1.00  0.00    -0.382 N 
ATOM   1255  C2   DA A  37      96.542  81.131 188.599  1.00  0.00     0.237 A 
ATOM   1256  N3   DA A  37      96.416  80.685 189.848  1.00  0.00    -0.222 NA
ATOM   1257  H62  DA A  37      93.687  82.576 186.503  1.00  0.00     0.157 HD
ATOM   1258  H61  DA A  37      92.477  82.402 187.757  1.00  0.00     0.157 HD
ATOM   1259  O2'  DC A  36      90.337  79.791 196.646  1.00  0.00    -0.388 OA
ATOM   1260  C1'  DC A  36      88.282  80.979 196.943  1.00  0.00     0.264 C 
ATOM   1261 2'HO  DC A  36      91.004  80.457 196.814  1.00  0.00     0.210 HD
ATOM   1262  N1   DC A  36      87.239  80.023 197.343  1.00  0.00    -0.278 N 
ATOM   1263  C2   DC A  36      87.179  79.602 198.675  1.00  0.00     0.352 A 
ATOM   1264  C6   DC A  36      86.338  79.550 196.429  1.00  0.00     0.102 A 
ATOM   1265  O2   DC A  36      88.007  80.048 199.484  1.00  0.00    -0.244 OA
ATOM   1266  N3   DC A  36      86.224  78.721 199.047  1.00  0.00    -0.177 NA
ATOM   1267  C4   DC A  36      85.354  78.263 198.147  1.00  0.00     0.128 A 
ATOM   1268  C5   DC A  36      85.388  78.676 196.784  1.00  0.00     0.067 A 
ATOM   1269  N4   DC A  36      84.435  77.392 198.561  1.00  0.00    -0.384 N 
ATOM   1270  H42  DC A  36      84.422  77.113 199.531  1.00  0.00     0.157 HD
ATOM   1271  H41  DC A  36      83.757  77.016 197.913  1.00  0.00     0.157 HD
ATOM   1272  C1'  DA A  32      90.583  85.879 182.168  1.00  0.00     0.262 C 
ATOM   1273  O2'  DA A  32      92.226  84.655 180.932  1.00  0.00    -0.388 OA
ATOM   1274  N9   DA A  32      90.127  85.840 183.558  1.00  0.00    -0.294 N 
ATOM   1275  C4   DA A  32      90.926  85.651 184.660  1.00  0.00     0.167 A 
ATOM   1276  C8   DA A  32      88.849  85.978 184.040  1.00  0.00     0.214 A 
ATOM   1277  N3   DA A  32      92.257  85.470 184.680  1.00  0.00    -0.222 NA
ATOM   1278  C5   DA A  32      90.077  85.685 185.751  1.00  0.00     0.149 A 
ATOM   1279  C2   DA A  32      92.692  85.316 185.927  1.00  0.00     0.237 A 
ATOM   1280  N1   DA A  32      91.998  85.324 187.073  1.00  0.00    -0.222 NA
ATOM   1281  C6   DA A  32      90.662  85.510 187.019  1.00  0.00     0.155 A 
ATOM   1282  N6   DA A  32      89.975  85.520 188.161  1.00  0.00    -0.382 N 
ATOM   1283  H61  DA A  32      88.975  85.658 188.145  1.00  0.00     0.157 HD
ATOM   1284  H62  DA A  32      90.457  85.389 189.040  1.00  0.00     0.157 HD
ATOM   1285  N7   DA A  32      88.765  85.893 185.346  1.00  0.00    -0.236 NA
ATOM   1286 2'HO  DA A  32      92.087  84.298 180.054  1.00  0.00     0.210 HD
ENDBRANCH 698 701
ENDBRANCH 697 698
ENDBRANCH 657 697
ENDBRANCH 537 538
ENDBRANCH 536 537
ENDBRANCH 533 536
ENDBRANCH 532 533
ENDBRANCH 515 532
ENDBRANCH 510 511
ENDBRANCH 509 510
ENDBRANCH 506 509
ENDBRANCH 505 506
ENDBRANCH 490 505
ENDBRANCH 485 486
ENDBRANCH 484 485
ENDBRANCH 481 484
ENDBRANCH 480 481
ENDBRANCH 463 480
ENDBRANCH 458 459
ENDBRANCH 457 458
ENDBRANCH 454 457
ENDBRANCH 453 454
ENDBRANCH 438 453
ENDBRANCH 433 434
ENDBRANCH 432 433
ENDBRANCH 429 432
ENDBRANCH 428 429
ENDBRANCH 424 428
BRANCH 425 1287
ATOM   1287  O2'  DG A  20     104.079 103.807 187.900  1.00  0.00    -0.388 OA
ATOM   1288 2'HO  DG A  20     103.941 103.766 188.847  1.00  0.00     0.210 HD
ENDBRANCH 425 1287
BRANCH 426 1289
ATOM   1289  N9   DG A  20     103.466 106.410 185.406  1.00  0.00    -0.293 N 
ATOM   1290  C8   DG A  20     102.662 107.426 185.863  1.00  0.00     0.214 A 
ATOM   1291  N7   DG A  20     102.821 108.543 185.207  1.00  0.00    -0.234 NA
ATOM   1292  C5   DG A  20     103.787 108.245 184.254  1.00  0.00     0.173 A 
ATOM   1293  C6   DG A  20     104.374 109.062 183.251  1.00  0.00     0.292 A 
ATOM   1294  C4   DG A  20     104.192 106.932 184.362  1.00  0.00     0.187 A 
ATOM   1295  O6   DG A  20     104.152 110.251 182.995  1.00  0.00    -0.265 OA
ATOM   1296  N1   DG A  20     105.312 108.356 182.504  1.00  0.00    -0.153 N 
ATOM   1297  H1   DG A  20     105.785 108.856 181.768  1.00  0.00     0.187 HD
ATOM   1298  C2   DG A  20     105.641 107.040 182.693  1.00  0.00     0.703 A 
ATOM   1299  N3   DG A  20     105.105 106.269 183.623  1.00  0.00    -0.044 NA
BRANCH 1298 1300
ATOM   1300  N2   DG A  20     106.564 106.539 181.870  1.00  0.00    -0.233 N 
ATOM   1301  H22  DG A  20     106.606 105.546 181.694  1.00  0.00     0.174 HD
ATOM   1302  H21  DG A  20     107.211 107.166 181.413  1.00  0.00     0.174 HD
ENDBRANCH 1298 1300
ENDBRANCH 426 1289
ENDBRANCH 422 423
ENDBRANCH 421 422
ENDBRANCH 418 421
ENDBRANCH 417 418
ENDBRANCH 400 417
ENDBRANCH 395 396
ENDBRANCH 394 395
ENDBRANCH 391 394
ENDBRANCH 390 391
ENDBRANCH 373 390
ENDBRANCH 368 369
ENDBRANCH 367 368
ENDBRANCH 364 367
ENDBRANCH 363 364
ENDBRANCH 359 363
BRANCH 360 1303
ATOM   1303  O2'  DT A  17      94.850 114.471 184.041  1.00  0.00    -0.388 OA
ATOM   1304 2'HO  DT A  17      94.621 113.569 184.268  1.00  0.00     0.210 HD
ENDBRANCH 360 1303
BRANCH 361 1305
ATOM   1305  N1   DT A  17      94.711 116.099 186.796  1.00  0.00    -0.280 N 
ATOM   1306  C2   DT A  17      93.332 116.186 186.755  1.00  0.00     0.331 A 
ATOM   1307  N3   DT A  17      92.813 117.381 187.184  1.00  0.00    -0.275 N 
ATOM   1308  O2   DT A  17      92.621 115.275 186.370  1.00  0.00    -0.246 OA
ATOM   1309  H3   DT A  17      91.808 117.465 187.165  1.00  0.00     0.173 HD
ATOM   1310  C4   DT A  17      93.515 118.474 187.637  1.00  0.00     0.250 A 
ATOM   1311  O4   DT A  17      92.902 119.480 187.990  1.00  0.00    -0.268 OA
ATOM   1312  C5   DT A  17      94.934 118.307 187.648  1.00  0.00     0.092 A 
ATOM   1313  C6   DT A  17      95.475 117.155 187.239  1.00  0.00     0.104 A 
ENDBRANCH 361 1305
ENDBRANCH 357 358
ENDBRANCH 356 357
ENDBRANCH 353 356
ENDBRANCH 352 353
ENDBRANCH 348 352
BRANCH 349 1314
ATOM   1314  O2'  DT A  16     100.027 113.808 191.592  1.00  0.00    -0.388 OA
ATOM   1315 2'HO  DT A  16     100.211 114.436 192.291  1.00  0.00     0.210 HD
ENDBRANCH 349 1314
BRANCH 350 1316
ATOM   1316  N1   DT A  16      96.565 114.903 191.287  1.00  0.00    -0.280 N 
ATOM   1317  C6   DT A  16      95.838 116.040 191.015  1.00  0.00     0.104 A 
ATOM   1318  C5   DT A  16      94.582 115.993 190.562  1.00  0.00     0.092 A 
ATOM   1319  C4   DT A  16      93.946 114.733 190.344  1.00  0.00     0.250 A 
ATOM   1320  O4   DT A  16      92.806 114.562 189.918  1.00  0.00    -0.268 OA
ATOM   1321  N3   DT A  16      94.727 113.640 190.642  1.00  0.00    -0.275 N 
ATOM   1322  H3   DT A  16      94.300 112.735 190.509  1.00  0.00     0.173 HD
ATOM   1323  C2   DT A  16      96.016 113.647 191.107  1.00  0.00     0.331 A 
ATOM   1324  O2   DT A  16      96.624 112.618 191.341  1.00  0.00    -0.246 OA
ENDBRANCH 350 1316
ENDBRANCH 346 347
ENDBRANCH 345 346
ENDBRANCH 342 345
ENDBRANCH 341 342
ENDBRANCH 337 341
BRANCH 338 1325
ATOM   1325  O2'  DG A  15     101.419 119.371 188.094  1.00  0.00    -0.388 OA
ATOM   1326 2'HO  DG A  15     100.681 118.997 188.575  1.00  0.00     0.210 HD
ENDBRANCH 338 1325
BRANCH 339 1327
ATOM   1327  N9   DG A  15     102.642 122.717 187.421  1.00  0.00    -0.293 N 
ATOM   1328  C4   DG A  15     103.492 123.349 186.546  1.00  0.00     0.187 A 
ATOM   1329  C5   DG A  15     103.950 124.461 187.219  1.00  0.00     0.173 A 
ATOM   1330  N3   DG A  15     103.791 122.940 185.296  1.00  0.00    -0.044 NA
ATOM   1331  N7   DG A  15     103.401 124.528 188.493  1.00  0.00    -0.234 NA
ATOM   1332  C6   DG A  15     104.862 125.329 186.563  1.00  0.00     0.292 A 
ATOM   1333  C8   DG A  15     102.633 123.474 188.565  1.00  0.00     0.214 A 
ATOM   1334  O6   DG A  15     105.384 126.365 186.988  1.00  0.00    -0.265 OA
ATOM   1335  N1   DG A  15     105.156 124.886 185.278  1.00  0.00    -0.153 N 
ATOM   1336  H1   DG A  15     105.798 125.441 184.736  1.00  0.00     0.187 HD
ATOM   1337  C2   DG A  15     104.639 123.755 184.699  1.00  0.00     0.703 A 
BRANCH 1337 1338
ATOM   1338  N2   DG A  15     105.043 123.493 183.453  1.00  0.00    -0.233 N 
ATOM   1339  H22  DG A  15     105.995 123.668 183.171  1.00  0.00     0.174 HD
ATOM   1340  H21  DG A  15     104.379 123.114 182.792  1.00  0.00     0.174 HD
ENDBRANCH 1337 1338
ENDBRANCH 339 1327
ENDBRANCH 335 336
ENDBRANCH 334 335
ENDBRANCH 331 334
ENDBRANCH 330 331
ENDBRANCH 326 330
BRANCH 327 1341
ATOM   1341  O2'  DA A  14      94.346 124.845 187.820  1.00  0.00    -0.388 OA
ATOM   1342 2'HO  DA A  14      95.087 124.239 187.862  1.00  0.00     0.210 HD
ENDBRANCH 327 1341
BRANCH 328 1343
ATOM   1343  N9   DA A  14      90.801 124.397 187.022  1.00  0.00    -0.294 N 
ATOM   1344  C8   DA A  14      89.970 123.562 186.316  1.00  0.00     0.214 A 
ATOM   1345  N7   DA A  14      88.754 123.493 186.801  1.00  0.00    -0.236 NA
ATOM   1346  C5   DA A  14      88.787 124.338 187.902  1.00  0.00     0.149 A 
ATOM   1347  C4   DA A  14      90.040 124.902 188.050  1.00  0.00     0.167 A 
ATOM   1348  C6   DA A  14      87.809 124.702 188.847  1.00  0.00     0.155 A 
ATOM   1349  N3   DA A  14      90.429 125.764 189.004  1.00  0.00    -0.222 NA
ATOM   1350  C2   DA A  14      89.424 126.030 189.835  1.00  0.00     0.237 A 
ATOM   1351  N1   DA A  14      88.167 125.566 189.820  1.00  0.00    -0.222 NA
BRANCH 1348 1352
ATOM   1352  N6   DA A  14      86.558 124.243 188.833  1.00  0.00    -0.382 N 
ATOM   1353  H61  DA A  14      86.380 123.257 188.956  1.00  0.00     0.157 HD
ATOM   1354  H62  DA A  14      85.792 124.886 188.693  1.00  0.00     0.157 HD
ENDBRANCH 1348 1352
ENDBRANCH 328 1343
ENDBRANCH 324 325
ENDBRANCH 323 324
ENDBRANCH 320 323
ENDBRANCH 319 320
ENDBRANCH 318 319
BRANCH 317 1355
ATOM   1355  O2'  DC A  13      90.674 121.782 181.082  1.00  0.00    -0.388 OA
ATOM   1356 2'HO  DC A  13      91.303 121.091 181.291  1.00  0.00     0.210 HD
ENDBRANCH 317 1355
BRANCH 315 1357
ATOM   1357  N4   DC A  13      91.098 128.323 184.748  1.00  0.00    -0.384 N 
ATOM   1358  H41  DC A  13      90.455 129.095 184.853  1.00  0.00     0.157 HD
ATOM   1359  H42  DC A  13      92.018 128.368 185.165  1.00  0.00     0.157 HD
ENDBRANCH 315 1357
TORSDOF 427
ENDMDL
MODEL 4
REMARK VINA RESULT:      -7.9      1.177      2.011
REMARK WARNING: 32 MAX_TORS EXCEEDED!!!
REMARK  99 active torsions:
REMARK  status: ('A' for Active; 'I' for Inactive)
REMARK       I    between atoms: O5'_2  and  C5'_3 
REMARK       I    between atoms: C5'_3  and  C4'_4 
REMARK       I    between atoms: C1'_6  and  N9_7 
REMARK       I    between atoms: C2_10  and  N2_11 
REMARK       I    between atoms: C2'_21  and  O2'_22 
REMARK       I    between atoms: C3'_24  and  O3'_25 
REMARK       I    between atoms: O3'_25  and  P_26 
REMARK       I    between atoms: P_26  and  O5'_29 
REMARK       I    between atoms: O5'_29  and  C5'_30 
REMARK       I    between atoms: C5'_30  and  C4'_31 
REMARK       I    between atoms: C1'_33  and  N9_34 
REMARK       I    between atoms: C2_37  and  N2_38 
REMARK       I    between atoms: C2'_48  and  O2'_49 
REMARK       I    between atoms: C3'_51  and  O3'_52 
REMARK       I    between atoms: O3'_52  and  P_53 
REMARK       I    between atoms: P_53  and  O5'_56 
REMARK       I    between atoms: O5'_56  and  C5'_57 
REMARK       I    between atoms: C5'_57  and  C4'_58 
REMARK       I    between atoms: C1'_60  and  N9_61 
REMARK       I    between atoms: C2_64  and  N2_65 
REMARK       I    between atoms: C2'_75  and  O2'_76 
REMARK       I    between atoms: C3'_78  and  O3'_79 
REMARK       I    between atoms: O3'_79  and  P_80 
REMARK       I    between atoms: P_80  and  O5'_83 
REMARK       I    between atoms: O5'_83  and  C5'_84 
REMARK       I    between atoms: C5'_84  and  C4'_85 
REMARK       I    between atoms: C1'_87  and  N9_88 
REMARK       I    between atoms: C2_91  and  N2_92 
REMARK       I    between atoms: C2'_102  and  O2'_103 
REMARK       I    between atoms: C3'_105  and  O3'_106 
REMARK       I    between atoms: O3'_106  and  P_107 
REMARK       I    between atoms: P_107  and  O5'_110 
REMARK       I    between atoms: O5'_110  and  C5'_111 
REMARK       I    between atoms: C5'_111  and  C4'_112 
REMARK       I    between atoms: C1'_114  and  N9_115 
REMARK       I    between atoms: C2_118  and  N2_119 
REMARK       I    between atoms: C2'_129  and  O2'_130 
REMARK       I    between atoms: C3'_132  and  O3'_133 
REMARK       I    between atoms: O3'_133  and  P_134 
REMARK       I    between atoms: P_134  and  O5'_137 
REMARK       I    between atoms: O5'_137  and  C5'_138 
REMARK       I    between atoms: C5'_138  and  C4'_139 
REMARK       I    between atoms: C1'_141  and  N1_142 
REMARK       I    between atoms: C2'_151  and  O2'_152 
REMARK       I    between atoms: C3'_154  and  O3'_155 
REMARK       I    between atoms: O3'_155  and  P_156 
REMARK       I    between atoms: P_156  and  O5'_159 
REMARK       I    between atoms: O5'_159  and  C5'_160 
REMARK       I    between atoms: C5'_160  and  C4'_161 
REMARK       I    between atoms: C1'_163  and  N9_164 
REMARK       I    between atoms: C2_167  and  N2_168 
REMARK       I    between atoms: C2'_178  and  O2'_179 
REMARK       I    between atoms: C3'_181  and  O3'_182 
REMARK       I    between atoms: O3'_182  and  P_183 
REMARK       I    between atoms: P_183  and  O5'_186 
REMARK       I    between atoms: O5'_186  and  C5'_187 
REMARK       I    between atoms: C5'_187  and  C4'_188 
REMARK       I    between atoms: C1'_190  and  N1_191 
REMARK       I    between atoms: C2'_200  and  O2'_201 
REMARK       I    between atoms: C3'_203  and  O3'_204 
REMARK       I    between atoms: O3'_204  and  P_205 
REMARK       I    between atoms: P_205  and  O5'_208 
REMARK       I    between atoms: O5'_208  and  C5'_209 
REMARK       I    between atoms: C5'_209  and  C4'_210 
REMARK       I    between atoms: C1'_212  and  N9_213 
REMARK       I    between atoms: C6_218  and  N6_219 
REMARK       I    between atoms: C2'_225  and  O2'_226 
REMARK       I    between atoms: C3'_228  and  O3'_229 
REMARK       I    between atoms: O3'_229  and  P_230 
REMARK       I    between atoms: P_230  and  O5'_233 
REMARK       I    between atoms: O5'_233  and  C5'_234 
REMARK       I    between atoms: C5'_234  and  C4'_235 
REMARK       I    between atoms: C1'_237  and  N9_238 
REMARK       I    between atoms: C2_241  and  N2_242 
REMARK       I    between atoms: C2'_252  and  O2'_253 
REMARK       I    between atoms: C3'_255  and  O3'_256 
REMARK       I    between atoms: O3'_256  and  P_257 
REMARK       I    between atoms: P_257  and  O5'_260 
REMARK       I    between atoms: O5'_260  and  C5'_261 
REMARK       I    between atoms: C5'_261  and  C4'_262 
REMARK       I    between atoms: C1'_264  and  N1_265 
REMARK       I    between atoms: C4_270  and  N4_271 
REMARK       I    between atoms: C2'_275  and  O2'_276 
REMARK       I    between atoms: C3'_278  and  O3'_279 
REMARK       I    between atoms: O3'_279  and  P_280 
REMARK       I    between atoms: P_280  and  O5'_283 
REMARK       I    between atoms: O5'_283  and  C5'_284 
REMARK       I    between atoms: C5'_284  and  C4'_285 
REMARK       I    between atoms: C1'_287  and  N1_288 
REMARK       I    between atoms: C2'_297  and  O2'_298 
REMARK       I    between atoms: C3'_300  and  O3'_301 
REMARK       I    between atoms: O3'_301  and  P_302 
REMARK       I    between atoms: P_302  and  O5'_305 
REMARK       I    between atoms: O5'_305  and  C5'_306 
REMARK       I    between atoms: C5'_306  and  C4'_307 
REMARK       I    between atoms: C1'_309  and  N1_310 
REMARK    1  A    between atoms: C4_315  and  N4_316 
REMARK    2  A    between atoms: C2'_320  and  O2'_321 
REMARK    3  A    between atoms: C3'_323  and  O3'_324 
REMARK    4  A    between atoms: O3'_324  and  P_325 
REMARK    5  A    between atoms: P_325  and  O5'_328 
REMARK    6  A    between atoms: O5'_328  and  C5'_329 
REMARK    7  A    between atoms: C5'_329  and  C4'_330 
REMARK    8  A    between atoms: C1'_332  and  N9_333 
REMARK    9  A    between atoms: C6_338  and  N6_339 
REMARK   10  A    between atoms: C2'_345  and  O2'_346 
REMARK   11  A    between atoms: C3'_348  and  O3'_349 
REMARK   12  A    between atoms: O3'_349  and  P_350 
REMARK   13  A    between atoms: P_350  and  O5'_353 
REMARK   14  A    between atoms: O5'_353  and  C5'_354 
REMARK   15  A    between atoms: C5'_354  and  C4'_355 
REMARK   16  A    between atoms: C1'_357  and  N9_358 
REMARK   17  A    between atoms: C2_361  and  N2_362 
REMARK   18  A    between atoms: C2'_372  and  O2'_373 
REMARK   19  A    between atoms: C3'_375  and  O3'_376 
REMARK   20  A    between atoms: O3'_376  and  P_377 
REMARK   21  A    between atoms: P_377  and  O5'_380 
REMARK   22  A    between atoms: O5'_380  and  C5'_381 
REMARK   23  A    between atoms: C5'_381  and  C4'_382 
REMARK   24  A    between atoms: C1'_384  and  N1_385 
REMARK   25  A    between atoms: C2'_394  and  O2'_395 
REMARK   26  A    between atoms: C3'_397  and  O3'_398 
REMARK   27  A    between atoms: O3'_398  and  P_399 
REMARK   28  A    between atoms: P_399  and  O5'_402 
REMARK   29  A    between atoms: O5'_402  and  C5'_403 
REMARK   30  A    between atoms: C5'_403  and  C4'_404 
REMARK   31  A    between atoms: C1'_406  and  N1_407 
REMARK   32  A    between atoms: C2'_416  and  O2'_417 
REMARK   33  A    between atoms: C3'_419  and  O3'_420 
REMARK   34  A    between atoms: O3'_420  and  P_421 
REMARK   35  A    between atoms: P_421  and  O5'_424 
REMARK   36  A    between atoms: O5'_424  and  C5'_425 
REMARK   37  A    between atoms: C5'_425  and  C4'_426 
REMARK   38  A    between atoms: C1'_428  and  N9_429 
REMARK   39  A    between atoms: C2_432  and  N2_433 
REMARK   40  A    between atoms: C2'_443  and  O2'_444 
REMARK   41  A    between atoms: C3'_446  and  O3'_447 
REMARK   42  A    between atoms: O3'_447  and  P_448 
REMARK   43  A    between atoms: P_448  and  O5'_451 
REMARK   44  A    between atoms: O5'_451  and  C5'_452 
REMARK   45  A    between atoms: C5'_452  and  C4'_453 
REMARK   46  A    between atoms: C1'_455  and  N9_456 
REMARK   47  A    between atoms: C2_459  and  N2_460 
REMARK   48  A    between atoms: C2'_470  and  O2'_471 
REMARK   49  A    between atoms: C3'_473  and  O3'_474 
REMARK   50  A    between atoms: O3'_474  and  P_475 
REMARK   51  A    between atoms: P_475  and  O5'_478 
REMARK   52  A    between atoms: O5'_478  and  C5'_479 
REMARK   53  A    between atoms: C5'_479  and  C4'_480 
REMARK   54  A    between atoms: C1'_482  and  N9_483 
REMARK   55  A    between atoms: C2_486  and  N2_487 
REMARK   56  A    between atoms: C2'_497  and  O2'_498 
REMARK   57  A    between atoms: C3'_500  and  O3'_501 
REMARK   58  A    between atoms: O3'_501  and  P_502 
REMARK   59  A    between atoms: P_502  and  O5'_505 
REMARK   60  A    between atoms: O5'_505  and  C5'_506 
REMARK   61  A    between atoms: C5'_506  and  C4'_507 
REMARK   62  A    between atoms: C1'_509  and  N9_510 
REMARK   63  A    between atoms: C6_515  and  N6_516 
REMARK   64  A    between atoms: C2'_522  and  O2'_523 
REMARK   65  A    between atoms: C3'_525  and  O3'_526 
REMARK   66  A    between atoms: O3'_526  and  P_527 
REMARK   67  A    between atoms: P_527  and  O5'_530 
REMARK   68  A    between atoms: O5'_530  and  C5'_531 
REMARK   69  A    between atoms: C5'_531  and  C4'_532 
REMARK   70  A    between atoms: C1'_534  and  N9_535 
REMARK   71  A    between atoms: C2_538  and  N2_539 
REMARK   72  A    between atoms: C2'_549  and  O2'_550 
REMARK   73  A    between atoms: C3'_552  and  O3'_553 
REMARK   74  A    between atoms: O3'_553  and  P_554 
REMARK   75  A    between atoms: P_554  and  O5'_557 
REMARK   76  A    between atoms: O5'_557  and  C5'_558 
REMARK   77  A    between atoms: C5'_558  and  C4'_559 
REMARK   78  A    between atoms: C1'_561  and  N9_562 
REMARK   79  A    between atoms: C6_567  and  N6_568 
REMARK   80  A    between atoms: C2'_574  and  O2'_575 
REMARK   81  A    between atoms: C3'_577  and  O3'_578 
REMARK   82  A    between atoms: O3'_578  and  P_579 
REMARK   83  A    between atoms: P_579  and  O5'_582 
REMARK   84  A    between atoms: O5'_582  and  C5'_583 
REMARK   85  A    between atoms: C5'_583  and  C4'_584 
REMARK   86  A    between atoms: C1'_586  and  N9_587 
REMARK   87  A    between atoms: C2_590  and  N2_591 
REMARK   88  A    between atoms: C2'_601  and  O2'_602 
REMARK   89  A    between atoms: C3'_604  and  O3'_605 
REMARK   90  A    between atoms: O3'_605  and  P_606 
REMARK   91  A    between atoms: P_606  and  O5'_609 
REMARK   92  A    between atoms: O5'_609  and  C5'_610 
REMARK   93  A    between atoms: C5'_610  and  C4'_611 
REMARK   94  A    between atoms: C1'_613  and  N1_614 
REMARK       I    between atoms: C4_619  and  N4_620 
REMARK       I    between atoms: C2'_624  and  O2'_625 
REMARK       I    between atoms: C3'_627  and  O3'_628 
REMARK       I    between atoms: O3'_628  and  P_629 
REMARK       I    between atoms: P_629  and  O5'_632 
REMARK       I    between atoms: O5'_632  and  C5'_633 
REMARK       I    between atoms: C5'_633  and  C4'_634 
REMARK       I    between atoms: C1'_636  and  N9_637 
REMARK       I    between atoms: C2_640  and  N2_641 
REMARK       I    between atoms: C2'_651  and  O2'_652 
REMARK       I    between atoms: C3'_654  and  O3'_655 
REMARK       I    between atoms: O3'_655  and  P_656 
REMARK       I    between atoms: P_656  and  O5'_659 
REMARK       I    between atoms: O5'_659  and  C5'_660 
REMARK       I    between atoms: C5'_660  and  C4'_661 
REMARK       I    between atoms: C1'_663  and  N1_664 
REMARK       I    between atoms: C4_669  and  N4_670 
REMARK       I    between atoms: C2'_674  and  O2'_675 
REMARK       I    between atoms: C3'_677  and  O3'_678 
REMARK       I    between atoms: O3'_678  and  P_679 
REMARK       I    between atoms: P_679  and  O5'_682 
REMARK       I    between atoms: O5'_682  and  C5'_683 
REMARK       I    between atoms: C5'_683  and  C4'_684 
REMARK       I    between atoms: C1'_686  and  N1_687 
REMARK       I    between atoms: C2'_696  and  O2'_697 
REMARK       I    between atoms: C3'_699  and  O3'_700 
REMARK       I    between atoms: O3'_700  and  P_701 
REMARK       I    between atoms: P_701  and  O5'_704 
REMARK       I    between atoms: O5'_704  and  C5'_705 
REMARK       I    between atoms: C5'_705  and  C4'_706 
REMARK       I    between atoms: C1'_708  and  N1_709 
REMARK       I    between atoms: C2'_718  and  O2'_719 
REMARK       I    between atoms: C3'_721  and  O3'_722 
REMARK       I    between atoms: O3'_722  and  P_723 
REMARK       I    between atoms: P_723  and  O5'_726 
REMARK       I    between atoms: O5'_726  and  C5'_727 
REMARK       I    between atoms: C5'_727  and  C4'_728 
REMARK       I    between atoms: C1'_730  and  N1_731 
REMARK       I    between atoms: C4_736  and  N4_737 
REMARK       I    between atoms: C2'_741  and  O2'_742 
REMARK       I    between atoms: C3'_744  and  O3'_745 
REMARK       I    between atoms: O3'_745  and  P_746 
REMARK       I    between atoms: P_746  and  O5'_749 
REMARK       I    between atoms: O5'_749  and  C5'_750 
REMARK       I    between atoms: C5'_750  and  C4'_751 
REMARK       I    between atoms: C1'_753  and  N9_754 
REMARK   95  A    between atoms: C6_759  and  N6_760 
REMARK   96  A    between atoms: C2'_766  and  O2'_767 
REMARK   97  A    between atoms: C3'_769  and  O3'_770 
REMARK   98  A    between atoms: O3'_770  and  P_771 
REMARK   99  A    between atoms: P_771  and  O5'_774 
REMARK       I    between atoms: O5'_774  and  C5'_775 
REMARK       I    between atoms: C5'_775  and  C4'_776 
REMARK       I    between atoms: C1'_778  and  N9_779 
REMARK       I    between atoms: C6_784  and  N6_785 
REMARK       I    between atoms: C2'_791  and  O2'_792 
REMARK       I    between atoms: C3'_794  and  O3'_795 
REMARK       I    between atoms: O3'_795  and  P_796 
REMARK       I    between atoms: P_796  and  O5'_799 
REMARK       I    between atoms: O5'_799  and  C5'_800 
REMARK       I    between atoms: C5'_800  and  C4'_801 
REMARK       I    between atoms: C1'_803  and  N1_804 
REMARK       I    between atoms: C2'_813  and  O2'_814 
REMARK       I    between atoms: C3'_816  and  O3'_817 
REMARK       I    between atoms: O3'_817  and  P_818 
REMARK       I    between atoms: P_818  and  O5'_821 
REMARK       I    between atoms: O5'_821  and  C5'_822 
REMARK       I    between atoms: C5'_822  and  C4'_823 
REMARK       I    between atoms: C1'_825  and  N9_826 
REMARK       I    between atoms: C2_829  and  N2_830 
REMARK       I    between atoms: C2'_840  and  O2'_841 
REMARK       I    between atoms: C3'_843  and  O3'_844 
REMARK       I    between atoms: O3'_844  and  P_845 
REMARK       I    between atoms: P_845  and  O5'_848 
REMARK       I    between atoms: O5'_848  and  C5'_849 
REMARK       I    between atoms: C5'_849  and  C4'_850 
REMARK       I    between atoms: C1'_852  and  N9_853 
REMARK       I    between atoms: C2_856  and  N2_857 
REMARK       I    between atoms: C2'_867  and  O2'_868 
REMARK       I    between atoms: C3'_870  and  O3'_871 
REMARK       I    between atoms: O3'_871  and  P_872 
REMARK       I    between atoms: P_872  and  O5'_875 
REMARK       I    between atoms: O5'_875  and  C5'_876 
REMARK       I    between atoms: C5'_876  and  C4'_877 
REMARK       I    between atoms: C1'_879  and  N1_880 
REMARK       I    between atoms: C4_885  and  N4_886 
REMARK       I    between atoms: C2'_890  and  O2'_891 
REMARK       I    between atoms: C3'_893  and  O3'_894 
REMARK       I    between atoms: O3'_894  and  P_895 
REMARK       I    between atoms: P_895  and  O5'_898 
REMARK       I    between atoms: O5'_898  and  C5'_899 
REMARK       I    between atoms: C5'_899  and  C4'_900 
REMARK       I    between atoms: C1'_902  and  N9_903 
REMARK       I    between atoms: C6_908  and  N6_909 
REMARK       I    between atoms: C2'_915  and  O2'_916 
REMARK       I    between atoms: C3'_918  and  O3'_919 
REMARK       I    between atoms: O3'_919  and  P_920 
REMARK       I    between atoms: P_920  and  O5'_923 
REMARK       I    between atoms: O5'_923  and  C5'_924 
REMARK       I    between atoms: C5'_924  and  C4'_925 
REMARK       I    between atoms: C1'_927  and  N1_928 
REMARK       I    between atoms: C2'_937  and  O2'_938 
REMARK       I    between atoms: C3'_940  and  O3'_941 
REMARK       I    between atoms: O3'_941  and  P_942 
REMARK       I    between atoms: P_942  and  O5'_945 
REMARK       I    between atoms: O5'_945  and  C5'_946 
REMARK       I    between atoms: C5'_946  and  C4'_947 
REMARK       I    between atoms: C1'_949  and  N1_950 
REMARK       I    between atoms: C2'_959  and  O2'_960 
REMARK       I    between atoms: C3'_962  and  O3'_963 
REMARK       I    between atoms: O3'_963  and  P_964 
REMARK       I    between atoms: P_964  and  O5'_967 
REMARK       I    between atoms: O5'_967  and  C5'_968 
REMARK       I    between atoms: C5'_968  and  C4'_969 
REMARK       I    between atoms: C1'_971  and  N9_972 
REMARK       I    between atoms: C2_975  and  N2_976 
REMARK       I    between atoms: C2'_986  and  O2'_987 
REMARK       I    between atoms: C3'_989  and  O3'_990 
REMARK       I    between atoms: O3'_990  and  P_991 
REMARK       I    between atoms: P_991  and  O5'_994 
REMARK       I    between atoms: O5'_994  and  C5'_995 
REMARK       I    between atoms: C5'_995  and  C4'_996 
REMARK       I    between atoms: C1'_998  and  N9_999 
REMARK       I    between atoms: C6_1004  and  N6_1005 
REMARK       I    between atoms: C2'_1011  and  O2'_1012 
REMARK       I    between atoms: C3'_1014  and  O3'_1015 
REMARK       I    between atoms: O3'_1015  and  P_1016 
REMARK       I    between atoms: P_1016  and  O5'_1019 
REMARK       I    between atoms: O5'_1019  and  C5'_1020 
REMARK       I    between atoms: C5'_1020  and  C4'_1021 
REMARK       I    between atoms: C1'_1023  and  N9_1024 
REMARK       I    between atoms: C6_1029  and  N6_1030 
REMARK       I    between atoms: C2'_1036  and  O2'_1037 
REMARK       I    between atoms: C3'_1039  and  O3'_1040 
REMARK       I    between atoms: O3'_1040  and  P_1041 
REMARK       I    between atoms: P_1041  and  O5'_1044 
REMARK       I    between atoms: O5'_1044  and  C5'_1045 
REMARK       I    between atoms: C5'_1045  and  C4'_1046 
REMARK       I    between atoms: C1'_1048  and  N9_1049 
REMARK       I    between atoms: C2_1052  and  N2_1053 
REMARK       I    between atoms: C2'_1063  and  O2'_1064 
REMARK       I    between atoms: C3'_1066  and  O3'_1067 
REMARK       I    between atoms: O3'_1067  and  P_1068 
REMARK       I    between atoms: P_1068  and  O5'_1071 
REMARK       I    between atoms: O5'_1071  and  C5'_1072 
REMARK       I    between atoms: C5'_1072  and  C4'_1073 
REMARK       I    between atoms: C1'_1075  and  N9_1076 
REMARK       I    between atoms: C6_1081  and  N6_1082 
REMARK       I    between atoms: C2'_1088  and  O2'_1089 
REMARK       I    between atoms: C3'_1091  and  O3'_1092 
REMARK       I    between atoms: O3'_1092  and  P_1093 
REMARK       I    between atoms: P_1093  and  O5'_1096 
REMARK       I    between atoms: O5'_1096  and  C5'_1097 
REMARK       I    between atoms: C5'_1097  and  C4'_1098 
REMARK       I    between atoms: C1'_1100  and  N9_1101 
REMARK       I    between atoms: C2_1104  and  N2_1105 
REMARK       I    between atoms: C2'_1115  and  O2'_1116 
REMARK       I    between atoms: C3'_1118  and  O3'_1119 
REMARK       I    between atoms: O3'_1119  and  P_1120 
REMARK       I    between atoms: P_1120  and  O5'_1123 
REMARK       I    between atoms: O5'_1123  and  C5'_1124 
REMARK       I    between atoms: C5'_1124  and  C4'_1125 
REMARK       I    between atoms: C1'_1127  and  N9_1128 
REMARK       I    between atoms: C2_1131  and  N2_1132 
REMARK       I    between atoms: C2'_1142  and  O2'_1143 
REMARK       I    between atoms: C3'_1145  and  O3'_1146 
REMARK       I    between atoms: O3'_1146  and  P_1147 
REMARK       I    between atoms: P_1147  and  O5'_1150 
REMARK       I    between atoms: O5'_1150  and  C5'_1151 
REMARK       I    between atoms: C5'_1151  and  C4'_1152 
REMARK       I    between atoms: C1'_1154  and  N1_1155 
REMARK       I    between atoms: C2'_1164  and  O2'_1165 
REMARK       I    between atoms: C3'_1167  and  O3'_1168 
REMARK       I    between atoms: O3'_1168  and  P_1169 
REMARK       I    between atoms: P_1169  and  O5'_1172 
REMARK       I    between atoms: O5'_1172  and  C5'_1173 
REMARK       I    between atoms: C5'_1173  and  C4'_1174 
REMARK       I    between atoms: C1'_1176  and  N1_1177 
REMARK       I    between atoms: C4_1182  and  N4_1183 
REMARK       I    between atoms: C2'_1187  and  O2'_1188 
REMARK       I    between atoms: C3'_1190  and  O3'_1191 
REMARK       I    between atoms: O3'_1191  and  P_1192 
REMARK       I    between atoms: P_1192  and  O5'_1195 
REMARK       I    between atoms: O5'_1195  and  C5'_1196 
REMARK       I    between atoms: C5'_1196  and  C4'_1197 
REMARK       I    between atoms: C1'_1199  and  N9_1200 
REMARK       I    between atoms: C6_1205  and  N6_1206 
REMARK       I    between atoms: C2'_1212  and  O2'_1213 
REMARK       I    between atoms: C3'_1215  and  O3'_1216 
REMARK       I    between atoms: O3'_1216  and  P_1217 
REMARK       I    between atoms: P_1217  and  O5'_1220 
REMARK       I    between atoms: O5'_1220  and  C5'_1221 
REMARK       I    between atoms: C5'_1221  and  C4'_1222 
REMARK       I    between atoms: C1'_1224  and  N9_1225 
REMARK       I    between atoms: C2_1228  and  N2_1229 
REMARK       I    between atoms: C2'_1239  and  O2'_1240 
REMARK       I    between atoms: C3'_1242  and  O3'_1243 
REMARK       I    between atoms: O3'_1243  and  P_1244 
REMARK       I    between atoms: P_1244  and  O5'_1247 
REMARK       I    between atoms: O5'_1247  and  C5'_1248 
REMARK       I    between atoms: C5'_1248  and  C4'_1249 
REMARK       I    between atoms: C1'_1251  and  N1_1252 
REMARK       I    between atoms: C4_1257  and  N4_1258 
REMARK       I    between atoms: C2'_1262  and  O2'_1263 
REMARK       I    between atoms: C3'_1265  and  O3'_1266 
REMARK       I    between atoms: O3'_1266  and  P_1267 
REMARK       I    between atoms: P_1267  and  O5'_1270 
REMARK       I    between atoms: O5'_1270  and  C5'_1271 
REMARK       I    between atoms: C5'_1271  and  C4'_1272 
REMARK       I    between atoms: C1'_1274  and  N1_1275 
REMARK       I    between atoms: C4_1280  and  N4_1281 
REMARK       I    between atoms: C2'_1285  and  O2'_1286 
REMARK       I    between atoms: C3'_1288  and  O3'_1289 
REMARK       I    between atoms: O3'_1289  and  P_1290 
REMARK       I    between atoms: P_1290  and  O5'_1293 
REMARK       I    between atoms: O5'_1293  and  C5'_1294 
REMARK       I    between atoms: C5'_1294  and  C4'_1295 
REMARK       I    between atoms: C1'_1297  and  N1_1298 
REMARK       I    between atoms: C4_1303  and  N4_1304 
REMARK       I    between atoms: C2'_1308  and  O2'_1309 
REMARK       I    between atoms: C3'_1311  and  O3'_1312 
REMARK       I    between atoms: O3'_1312  and  P_1313 
REMARK       I    between atoms: P_1313  and  O5'_1316 
REMARK       I    between atoms: O5'_1316  and  C5'_1317 
REMARK       I    between atoms: C5'_1317  and  C4'_1318 
REMARK       I    between atoms: C1'_1320  and  N1_1321 
REMARK       I    between atoms: C4_1326  and  N4_1327 
REMARK       I    between atoms: C2'_1331  and  O2'_1332 
REMARK       I    between atoms: C3'_1334  and  O3'_1335 
REMARK       I    between atoms: O3'_1335  and  P_1336 
REMARK       I    between atoms: P_1336  and  O5'_1339 
REMARK       I    between atoms: O5'_1339  and  C5'_1340 
REMARK       I    between atoms: C5'_1340  and  C4'_1341 
REMARK       I    between atoms: C1'_1343  and  N1_1344 
REMARK       I    between atoms: C4_1349  and  N4_1350 
REMARK       I    between atoms: C2'_1354  and  O2'_1355 
REMARK       I    between atoms: C3'_1357  and  O3'_1358 
ROOT
ATOM      1 5'HO  DG A   1     106.541  99.862 215.422  1.00  0.00     0.209 HD
ATOM      2  O5'  DG A   1     106.542 100.796 215.198  1.00  0.00    -0.398 OA
ATOM      3  C5'  DG A   1     107.183 100.920 213.924  1.00  0.00     0.198 C 
ATOM      4  C4'  DG A   1     107.365  99.565 213.280  1.00  0.00     0.180 C 
ATOM      5  O4'  DG A   1     108.346  98.813 214.047  1.00  0.00    -0.353 OA
ATOM      6  C1'  DG A   1     107.903  97.478 214.215  1.00  0.00     0.262 C 
ATOM      7  N9   DG A   1     107.593  97.272 215.627  1.00  0.00    -0.293 N 
ATOM      8  C4   DG A   1     107.141  96.108 216.203  1.00  0.00     0.187 A 
ATOM      9  N3   DG A   1     106.903  94.946 215.561  1.00  0.00    -0.044 NA
ATOM     10  C2   DG A   1     106.478  94.006 216.386  1.00  0.00     0.703 A 
ATOM     11  N2   DG A   1     106.196  92.788 215.916  1.00  0.00    -0.233 N 
ATOM     12  H21  DG A   1     106.312  92.600 214.931  1.00  0.00     0.174 HD
ATOM     13  H22  DG A   1     105.872  92.063 216.541  1.00  0.00     0.174 HD
ATOM     14  N1   DG A   1     106.299  94.189 217.733  1.00  0.00    -0.153 N 
ATOM     15  H1   DG A   1     105.969  93.405 218.272  1.00  0.00     0.187 HD
ATOM     16  C6   DG A   1     106.535  95.376 218.416  1.00  0.00     0.292 A 
ATOM     17  O6   DG A   1     106.340  95.432 219.637  1.00  0.00    -0.265 OA
ATOM     18  C5   DG A   1     106.993  96.398 217.544  1.00  0.00     0.173 A 
ATOM     19  N7   DG A   1     107.344  97.716 217.806  1.00  0.00    -0.234 NA
ATOM     20  C8   DG A   1     107.692  98.192 216.642  1.00  0.00     0.214 A 
ATOM     21  C2'  DG A   1     106.708  97.279 213.284  1.00  0.00     0.199 C 
ATOM     22  O2'  DG A   1     107.184  96.898 212.006  1.00  0.00    -0.388 OA
ATOM     23 2'HO  DG A   1     106.493  97.110 211.380  1.00  0.00     0.210 HD
ATOM     24  C3'  DG A   1     106.122  98.684 213.257  1.00  0.00     0.198 C 
ATOM     25  O3'  DG A   1     105.335  98.924 212.093  1.00  0.00    -0.279 OA
ATOM     26  P    DG A   2     103.734  98.787 212.167  1.00  0.00     0.408 P 
ATOM     27  OP1  DG A   2     103.199  99.177 210.837  1.00  0.00    -0.624 OA
ATOM     28  OP2  DG A   2     103.258  99.493 213.384  1.00  0.00    -0.624 OA
ATOM     29  O5'  DG A   2     103.489  97.225 212.365  1.00  0.00    -0.287 OA
ATOM     30  C5'  DG A   2     103.821  96.292 211.338  1.00  0.00     0.216 C 
ATOM     31  C4'  DG A   2     103.261  94.928 211.670  1.00  0.00     0.180 C 
ATOM     32  O4'  DG A   2     104.076  94.319 212.709  1.00  0.00    -0.353 OA
ATOM     33  C1'  DG A   2     103.249  93.572 213.585  1.00  0.00     0.262 C 
ATOM     34  N9   DG A   2     103.344  94.153 214.920  1.00  0.00    -0.293 N 
ATOM     35  C4   DG A   2     103.006  93.541 216.103  1.00  0.00     0.187 A 
ATOM     36  N3   DG A   2     102.529  92.286 216.240  1.00  0.00    -0.044 NA
ATOM     37  C2   DG A   2     102.295  91.982 217.503  1.00  0.00     0.703 A 
ATOM     38  N2   DG A   2     101.816  90.776 217.816  1.00  0.00    -0.233 N 
ATOM     39  H21  DG A   2     101.637  90.108 217.081  1.00  0.00     0.174 HD
ATOM     40  H22  DG A   2     101.630  90.534 218.780  1.00  0.00     0.174 HD
ATOM     41  N1   DG A   2     102.513  92.837 218.553  1.00  0.00    -0.153 N 
ATOM     42  H1   DG A   2     102.298  92.505 219.479  1.00  0.00     0.187 HD
ATOM     43  C6   DG A   2     103.006  94.131 218.439  1.00  0.00     0.292 A 
ATOM     44  O6   DG A   2     103.168  94.817 219.455  1.00  0.00    -0.265 OA
ATOM     45  C5   DG A   2     103.261  94.476 217.085  1.00  0.00     0.173 A 
ATOM     46  N7   DG A   2     103.749  95.652 216.531  1.00  0.00    -0.234 NA
ATOM     47  C8   DG A   2     103.781  95.413 215.249  1.00  0.00     0.214 A 
ATOM     48  C2'  DG A   2     101.832  93.599 213.011  1.00  0.00     0.199 C 
ATOM     49  O2'  DG A   2     101.675  92.497 212.136  1.00  0.00    -0.388 OA
ATOM     50 2'HO  DG A   2     100.739  92.294 212.116  1.00  0.00     0.210 HD
ATOM     51  C3'  DG A   2     101.854  94.917 212.248  1.00  0.00     0.198 C 
ATOM     52  O3'  DG A   2     100.861  94.977 211.228  1.00  0.00    -0.279 OA
ATOM     53  P    DG A   3      99.389  95.520 211.580  1.00  0.00     0.408 P 
ATOM     54  OP1  DG A   3      98.579  95.436 210.339  1.00  0.00    -0.624 OA
ATOM     55  OP2  DG A   3      99.524  96.824 212.278  1.00  0.00    -0.624 OA
ATOM     56  O5'  DG A   3      98.820  94.453 212.619  1.00  0.00    -0.287 OA
ATOM     57  C5'  DG A   3      98.217  93.241 212.170  1.00  0.00     0.216 C 
ATOM     58  C4'  DG A   3      98.068  92.268 213.319  1.00  0.00     0.180 C 
ATOM     59  O4'  DG A   3      99.204  92.389 214.213  1.00  0.00    -0.353 OA
ATOM     60  C1'  DG A   3      98.812  92.003 215.519  1.00  0.00     0.262 C 
ATOM     61  N9   DG A   3      99.228  93.041 216.457  1.00  0.00    -0.293 N 
ATOM     62  C4   DG A   3      99.099  92.999 217.824  1.00  0.00     0.187 A 
ATOM     63  N3   DG A   3      98.563  91.988 218.539  1.00  0.00    -0.044 NA
ATOM     64  C2   DG A   3      98.575  92.239 219.836  1.00  0.00     0.703 A 
ATOM     65  N2   DG A   3      98.075  91.344 220.690  1.00  0.00    -0.233 N 
ATOM     66  H21  DG A   3      97.691  90.482 220.332  1.00  0.00     0.174 HD
ATOM     67  H22  DG A   3      98.073  91.529 221.684  1.00  0.00     0.174 HD
ATOM     68  N1   DG A   3      99.078  93.388 220.391  1.00  0.00    -0.153 N 
ATOM     69  H1   DG A   3      99.038  93.477 221.393  1.00  0.00     0.187 HD
ATOM     70  C6   DG A   3      99.639  94.441 219.677  1.00  0.00     0.292 A 
ATOM     71  O6   DG A   3     100.067  95.432 220.280  1.00  0.00    -0.265 OA
ATOM     72  C5   DG A   3      99.628  94.188 218.280  1.00  0.00     0.173 A 
ATOM     73  N7   DG A   3     100.080  94.964 217.219  1.00  0.00    -0.234 NA
ATOM     74  C8   DG A   3      99.821  94.245 216.162  1.00  0.00     0.214 A 
ATOM     75  C2'  DG A   3      97.299  91.765 215.507  1.00  0.00     0.199 C 
ATOM     76  O2'  DG A   3      97.066  90.373 215.390  1.00  0.00    -0.388 OA
ATOM     77 2'HO  DG A   3      96.353  90.267 214.759  1.00  0.00     0.210 HD
ATOM     78  C3'  DG A   3      96.880  92.502 214.239  1.00  0.00     0.198 C 
ATOM     79  O3'  DG A   3      95.673  91.982 213.684  1.00  0.00    -0.279 OA
ATOM     80  P    DG A   4      94.255  92.586 214.147  1.00  0.00     0.408 P 
ATOM     81  OP1  DG A   4      93.197  91.735 213.542  1.00  0.00    -0.624 OA
ATOM     82  OP2  DG A   4      94.259  94.047 213.884  1.00  0.00    -0.624 OA
ATOM     83  O5'  DG A   4      94.230  92.359 215.726  1.00  0.00    -0.287 OA
ATOM     84  C5'  DG A   4      94.163  91.046 216.279  1.00  0.00     0.216 C 
ATOM     85  C4'  DG A   4      93.838  91.114 217.754  1.00  0.00     0.180 C 
ATOM     86  O4'  DG A   4      95.040  91.446 218.495  1.00  0.00    -0.353 OA
ATOM     87  C1'  DG A   4      94.686  92.154 219.670  1.00  0.00     0.262 C 
ATOM     88  N9   DG A   4      95.441  93.403 219.703  1.00  0.00    -0.293 N 
ATOM     89  C4   DG A   4      95.771  94.124 220.824  1.00  0.00     0.187 A 
ATOM     90  N3   DG A   4      95.456  93.799 222.095  1.00  0.00    -0.044 NA
ATOM     91  C2   DG A   4      95.911  94.688 222.958  1.00  0.00     0.703 A 
ATOM     92  N2   DG A   4      95.694  94.512 224.263  1.00  0.00    -0.233 N 
ATOM     93  H21  DG A   4      95.183  93.698 224.572  1.00  0.00     0.174 HD
ATOM     94  H22  DG A   4      96.035  95.183 224.936  1.00  0.00     0.174 HD
ATOM     95  N1   DG A   4      96.614  95.811 222.605  1.00  0.00    -0.153 N 
ATOM     96  H1   DG A   4      96.912  96.433 223.340  1.00  0.00     0.187 HD
ATOM     97  C6   DG A   4      96.951  96.168 221.305  1.00  0.00     0.292 A 
ATOM     98  O6   DG A   4      97.593  97.204 221.099  1.00  0.00    -0.265 OA
ATOM     99  C5   DG A   4      96.471  95.219 220.363  1.00  0.00     0.173 A 
ATOM    100  N7   DG A   4      96.583  95.186 218.979  1.00  0.00    -0.234 NA
ATOM    101  C8   DG A   4      95.959  94.093 218.634  1.00  0.00     0.214 A 
ATOM    102  C2'  DG A   4      93.170  92.362 219.655  1.00  0.00     0.199 C 
ATOM    103  O2'  DG A   4      92.569  91.337 220.426  1.00  0.00    -0.388 OA
ATOM    104 2'HO  DG A   4      91.645  91.567 220.529  1.00  0.00     0.210 HD
ATOM    105  C3'  DG A   4      92.855  92.197 218.172  1.00  0.00     0.198 C 
ATOM    106  O3'  DG A   4      91.503  91.803 217.939  1.00  0.00    -0.279 OA
ATOM    107  P    DG A   5      90.401  92.911 217.551  1.00  0.00     0.408 P 
ATOM    108  OP1  DG A   5      89.337  92.215 216.783  1.00  0.00    -0.624 OA
ATOM    109  OP2  DG A   5      91.087  94.084 216.952  1.00  0.00    -0.624 OA
ATOM    110  O5'  DG A   5      89.788  93.359 218.954  1.00  0.00    -0.287 OA
ATOM    111  C5'  DG A   5      88.731  92.620 219.567  1.00  0.00     0.216 C 
ATOM    112  C4'  DG A   5      88.882  92.639 221.072  1.00  0.00     0.180 C 
ATOM    113  O4'  DG A   5      90.295  92.693 221.408  1.00  0.00    -0.353 OA
ATOM    114  C1'  DG A   5      90.479  93.473 222.576  1.00  0.00     0.262 C 
ATOM    115  N9   DG A   5      91.353  94.595 222.251  1.00  0.00    -0.293 N 
ATOM    116  C4   DG A   5      92.176  95.267 223.122  1.00  0.00     0.187 A 
ATOM    117  N3   DG A   5      92.323  95.005 224.439  1.00  0.00    -0.044 NA
ATOM    118  C2   DG A   5      93.187  95.822 225.011  1.00  0.00     0.703 A 
ATOM    119  N2   DG A   5      93.453  95.701 226.315  1.00  0.00    -0.233 N 
ATOM    120  H21  DG A   5      92.987  94.983 226.850  1.00  0.00     0.174 HD
ATOM    121  H22  DG A   5      94.118  96.315 226.762  1.00  0.00     0.174 HD
ATOM    122  N1   DG A   5      93.856  96.819 224.350  1.00  0.00    -0.153 N 
ATOM    123  H1   DG A   5      94.498  97.383 224.886  1.00  0.00     0.187 HD
ATOM    124  C6   DG A   5      93.721  97.111 222.998  1.00  0.00     0.292 A 
ATOM    125  O6   DG A   5      94.373  98.036 222.503  1.00  0.00    -0.265 OA
ATOM    126  C5   DG A   5      92.795  96.240 222.366  1.00  0.00     0.173 A 
ATOM    127  N7   DG A   5      92.371  96.181 221.044  1.00  0.00    -0.234 NA
ATOM    128  C8   DG A   5      91.518  95.193 221.025  1.00  0.00     0.214 A 
ATOM    129  C2'  DG A   5      89.098  93.905 223.071  1.00  0.00     0.199 C 
ATOM    130  O2'  DG A   5      88.633  92.952 224.008  1.00  0.00    -0.388 OA
ATOM    131 2'HO  DG A   5      87.723  92.764 223.780  1.00  0.00     0.210 HD
ATOM    132  C3'  DG A   5      88.287  93.848 221.782  1.00  0.00     0.198 C 
ATOM    133  O3'  DG A   5      86.893  93.684 222.030  1.00  0.00    -0.279 OA
ATOM    134  P    DT A   6      85.947  94.979 222.173  1.00  0.00     0.408 P 
ATOM    135  OP1  DT A   6      84.666  94.528 222.772  1.00  0.00    -0.624 OA
ATOM    136  OP2  DT A   6      85.938  95.690 220.870  1.00  0.00    -0.624 OA
ATOM    137  O5'  DT A   6      86.702  95.896 223.236  1.00  0.00    -0.287 OA
ATOM    138  C5'  DT A   6      86.728  95.551 224.620  1.00  0.00     0.216 C 
ATOM    139  C4'  DT A   6      87.191  96.731 225.445  1.00  0.00     0.180 C 
ATOM    140  O4'  DT A   6      88.626  96.892 225.295  1.00  0.00    -0.353 OA
ATOM    141  C1'  DT A   6      88.959  98.268 225.386  1.00  0.00     0.264 C 
ATOM    142  N1   DT A   6      89.660  98.664 224.155  1.00  0.00    -0.280 N 
ATOM    143  C6   DT A   6      89.535  97.937 222.992  1.00  0.00     0.104 A 
ATOM    144  C2   DT A   6      90.449  99.798 224.204  1.00  0.00     0.331 A 
ATOM    145  O2   DT A   6      90.588 100.466 225.212  1.00  0.00    -0.246 OA
ATOM    146  N3   DT A   6      91.073 100.123 223.028  1.00  0.00    -0.275 N 
ATOM    147  H3   DT A   6      91.636 100.960 223.034  1.00  0.00     0.173 HD
ATOM    148  C4   DT A   6      90.995  99.444 221.835  1.00  0.00     0.250 A 
ATOM    149  O4   DT A   6      91.627  99.859 220.863  1.00  0.00    -0.268 OA
ATOM    150  C5   DT A   6      90.162  98.282 221.863  1.00  0.00     0.092 A 
ATOM    151  C2'  DT A   6      87.662  99.043 225.624  1.00  0.00     0.199 C 
ATOM    152  O2'  DT A   6      87.480  99.199 227.019  1.00  0.00    -0.388 OA
ATOM    153 2'HO  DT A   6      86.938  99.980 227.143  1.00  0.00     0.210 HD
ATOM    154  C3'  DT A   6      86.636  98.085 225.033  1.00  0.00     0.198 C 
ATOM    155  O3'  DT A   6      85.324  98.300 225.545  1.00  0.00    -0.279 OA
ATOM    156  P    DG A   7      84.320  99.294 224.776  1.00  0.00     0.408 P 
ATOM    157  OP1  DG A   7      82.989  99.165 225.424  1.00  0.00    -0.624 OA
ATOM    158  OP2  DG A   7      84.450  99.061 223.316  1.00  0.00    -0.624 OA
ATOM    159  O5'  DG A   7      84.891 100.746 225.101  1.00  0.00    -0.287 OA
ATOM    160  C5'  DG A   7      84.769 101.308 226.407  1.00  0.00     0.216 C 
ATOM    161  C4'  DG A   7      85.564 102.591 226.504  1.00  0.00     0.180 C 
ATOM    162  O4'  DG A   7      86.943 102.341 226.133  1.00  0.00    -0.353 OA
ATOM    163  C1'  DG A   7      87.510 103.535 225.619  1.00  0.00     0.262 C 
ATOM    164  N9   DG A   7      88.136 103.236 224.335  1.00  0.00    -0.293 N 
ATOM    165  C4   DG A   7      89.087 103.994 223.696  1.00  0.00     0.187 A 
ATOM    166  N3   DG A   7      89.614 105.153 224.147  1.00  0.00    -0.044 NA
ATOM    167  C2   DG A   7      90.508 105.647 223.310  1.00  0.00     0.703 A 
ATOM    168  N2   DG A   7      91.129 106.791 223.605  1.00  0.00    -0.233 N 
ATOM    169  H21  DG A   7      90.909 107.269 224.467  1.00  0.00     0.174 HD
ATOM    170  H22  DG A   7      91.808 107.185 222.966  1.00  0.00     0.174 HD
ATOM    171  N1   DG A   7      90.859 105.056 222.124  1.00  0.00    -0.153 N 
ATOM    172  H1   DG A   7      91.554 105.522 221.560  1.00  0.00     0.187 HD
ATOM    173  C6   DG A   7      90.331 103.867 221.637  1.00  0.00     0.292 A 
ATOM    174  O6   DG A   7      90.718 103.424 220.550  1.00  0.00    -0.265 OA
ATOM    175  C5   DG A   7      89.369 103.321 222.527  1.00  0.00     0.173 A 
ATOM    176  N7   DG A   7      88.609 102.161 222.430  1.00  0.00    -0.234 NA
ATOM    177  C8   DG A   7      87.894 102.156 223.523  1.00  0.00     0.214 A 
ATOM    178  C2'  DG A   7      86.397 104.581 225.523  1.00  0.00     0.199 C 
ATOM    179  O2'  DG A   7      86.462 105.418 226.662  1.00  0.00    -0.388 OA
ATOM    180 2'HO  DG A   7      85.956 106.204 226.456  1.00  0.00     0.210 HD
ATOM    181  C3'  DG A   7      85.149 103.703 225.555  1.00  0.00     0.198 C 
ATOM    182  O3'  DG A   7      84.003 104.406 226.028  1.00  0.00    -0.279 OA
ATOM    183  P    DT A   8      83.108 105.260 224.999  1.00  0.00     0.408 P 
ATOM    184  OP1  DT A   8      82.104 106.007 225.799  1.00  0.00    -0.624 OA
ATOM    185  OP2  DT A   8      82.653 104.353 223.913  1.00  0.00    -0.624 OA
ATOM    186  O5'  DT A   8      84.133 106.307 224.371  1.00  0.00    -0.287 OA
ATOM    187  C5'  DT A   8      84.186 107.657 224.835  1.00  0.00     0.216 C 
ATOM    188  C4'  DT A   8      85.568 108.235 224.615  1.00  0.00     0.180 C 
ATOM    189  O4'  DT A   8      86.493 107.165 224.287  1.00  0.00    -0.353 OA
ATOM    190  C1'  DT A   8      87.476 107.643 223.386  1.00  0.00     0.264 C 
ATOM    191  N1   DT A   8      87.453 106.801 222.181  1.00  0.00    -0.280 N 
ATOM    192  C6   DT A   8      86.446 105.886 221.966  1.00  0.00     0.104 A 
ATOM    193  C2   DT A   8      88.480 106.956 221.267  1.00  0.00     0.331 A 
ATOM    194  O2   DT A   8      89.387 107.753 221.418  1.00  0.00    -0.246 OA
ATOM    195  N3   DT A   8      88.406 106.141 220.168  1.00  0.00    -0.275 N 
ATOM    196  H3   DT A   8      89.143 106.240 219.488  1.00  0.00     0.173 HD
ATOM    197  C4   DT A   8      87.435 105.207 219.892  1.00  0.00     0.250 A 
ATOM    198  O4   DT A   8      87.511 104.547 218.856  1.00  0.00    -0.268 OA
ATOM    199  C5   DT A   8      86.408 105.106 220.881  1.00  0.00     0.092 A 
ATOM    200  C2'  DT A   8      87.183 109.119 223.110  1.00  0.00     0.199 C 
ATOM    201  O2'  DT A   8      87.952 109.905 224.001  1.00  0.00    -0.388 OA
ATOM    202 2'HO  DT A   8      87.333 110.368 224.566  1.00  0.00     0.210 HD
ATOM    203  C3'  DT A   8      85.696 109.201 223.446  1.00  0.00     0.198 C 
ATOM    204  O3'  DT A   8      85.286 110.516 223.815  1.00  0.00    -0.279 OA
ATOM    205  P    DA A   9      85.158 111.664 222.692  1.00  0.00     0.408 P 
ATOM    206  OP1  DA A   9      86.173 111.385 221.645  1.00  0.00    -0.624 OA
ATOM    207  OP2  DA A   9      85.169 112.975 223.389  1.00  0.00    -0.624 OA
ATOM    208  O5'  DA A   9      83.703 111.446 222.079  1.00  0.00    -0.287 OA
ATOM    209  C5'  DA A   9      83.486 110.576 220.967  1.00  0.00     0.216 C 
ATOM    210  C4'  DA A   9      83.753 111.306 219.671  1.00  0.00     0.180 C 
ATOM    211  O4'  DA A   9      85.124 111.035 219.271  1.00  0.00    -0.353 OA
ATOM    212  C1'  DA A   9      85.169 110.694 217.901  1.00  0.00     0.262 C 
ATOM    213  N9   DA A   9      85.504 109.273 217.795  1.00  0.00    -0.294 N 
ATOM    214  C4   DA A   9      84.632 108.232 217.576  1.00  0.00     0.167 A 
ATOM    215  N3   DA A   9      83.300 108.304 217.419  1.00  0.00    -0.222 NA
ATOM    216  C2   DA A   9      82.783 107.094 217.226  1.00  0.00     0.237 A 
ATOM    217  N1   DA A   9      83.401 105.908 217.174  1.00  0.00    -0.222 NA
ATOM    218  C6   DA A   9      84.741 105.871 217.333  1.00  0.00     0.155 A 
ATOM    219  N6   DA A   9      85.354 104.689 217.277  1.00  0.00    -0.382 N 
ATOM    220  H61  DA A   9      86.356 104.632 217.393  1.00  0.00     0.157 HD
ATOM    221  H62  DA A   9      84.809 103.856 217.111  1.00  0.00     0.157 HD
ATOM    222  C5   DA A   9      85.408 107.089 217.550  1.00  0.00     0.149 A 
ATOM    223  N7   DA A   9      86.747 107.399 217.749  1.00  0.00    -0.236 NA
ATOM    224  C8   DA A   9      86.750 108.702 217.892  1.00  0.00     0.214 A 
ATOM    225  C2'  DA A   9      83.818 111.072 217.296  1.00  0.00     0.199 C 
ATOM    226  O2'  DA A   9      83.869 112.429 216.902  1.00  0.00    -0.388 OA
ATOM    227 2'HO  DA A   9      82.981 112.686 216.653  1.00  0.00     0.210 HD
ATOM    228  C3'  DA A   9      82.891 110.871 218.489  1.00  0.00     0.198 C 
ATOM    229  O3'  DA A   9      81.704 111.657 218.387  1.00  0.00    -0.279 OA
ATOM    230  P    DG A  10      80.417 111.071 217.616  1.00  0.00     0.408 P 
ATOM    231  OP1  DG A  10      80.753 109.716 217.107  1.00  0.00    -0.624 OA
ATOM    232  OP2  DG A  10      79.233 111.251 218.494  1.00  0.00    -0.624 OA
ATOM    233  O5'  DG A  10      80.248 112.034 216.356  1.00  0.00    -0.287 OA
ATOM    234  C5'  DG A  10      80.032 113.435 216.519  1.00  0.00     0.216 C 
ATOM    235  C4'  DG A  10      80.962 114.217 215.619  1.00  0.00     0.180 C 
ATOM    236  O4'  DG A  10      82.021 113.340 215.147  1.00  0.00    -0.353 OA
ATOM    237  C1'  DG A  10      82.335 113.648 213.800  1.00  0.00     0.262 C 
ATOM    238  N9   DG A  10      82.040 112.477 212.979  1.00  0.00    -0.293 N 
ATOM    239  C4   DG A  10      82.273 112.348 211.631  1.00  0.00     0.187 A 
ATOM    240  N3   DG A  10      82.817 113.285 210.827  1.00  0.00    -0.044 NA
ATOM    241  C2   DG A  10      82.915 112.867 209.578  1.00  0.00     0.703 A 
ATOM    242  N2   DG A  10      83.431 113.675 208.647  1.00  0.00    -0.233 N 
ATOM    243  H21  DG A  10      83.741 114.598 208.912  1.00  0.00     0.174 HD
ATOM    244  H22  DG A  10      83.518 113.364 207.689  1.00  0.00     0.174 HD
ATOM    245  N1   DG A  10      82.514 111.629 209.148  1.00  0.00    -0.153 N 
ATOM    246  H1   DG A  10      82.636 111.408 208.173  1.00  0.00     0.187 HD
ATOM    247  C6   DG A  10      81.950 110.647 209.956  1.00  0.00     0.292 A 
ATOM    248  O6   DG A  10      81.620 109.563 209.462  1.00  0.00    -0.265 OA
ATOM    249  C5   DG A  10      81.837 111.081 211.303  1.00  0.00     0.173 A 
ATOM    250  N7   DG A  10      81.338 110.426 212.423  1.00  0.00    -0.234 NA
ATOM    251  C8   DG A  10      81.478 111.292 213.389  1.00  0.00     0.214 A 
ATOM    252  C2'  DG A  10      81.529 114.887 213.411  1.00  0.00     0.199 C 
ATOM    253  O2'  DG A  10      82.297 116.039 213.709  1.00  0.00    -0.388 OA
ATOM    254 2'HO  DG A  10      81.791 116.555 214.337  1.00  0.00     0.210 HD
ATOM    255  C3'  DG A  10      80.331 114.768 214.346  1.00  0.00     0.198 C 
ATOM    256  O3'  DG A  10      79.697 116.024 214.577  1.00  0.00    -0.279 OA
ATOM    257  P    DC A  11      78.294 116.357 213.862  1.00  0.00     0.408 P 
ATOM    258  OP1  DC A  11      77.770 117.601 214.480  1.00  0.00    -0.624 OA
ATOM    259  OP2  DC A  11      77.460 115.128 213.868  1.00  0.00    -0.624 OA
ATOM    260  O5'  DC A  11      78.693 116.679 212.352  1.00  0.00    -0.287 OA
ATOM    261  C5'  DC A  11      79.438 117.851 212.021  1.00  0.00     0.216 C 
ATOM    262  C4'  DC A  11      79.570 117.979 210.521  1.00  0.00     0.180 C 
ATOM    263  O4'  DC A  11      80.536 116.997 210.054  1.00  0.00    -0.353 OA
ATOM    264  C1'  DC A  11      80.055 116.374 208.877  1.00  0.00     0.264 C 
ATOM    265  N1   DC A  11      79.741 114.969 209.186  1.00  0.00    -0.278 N 
ATOM    266  C6   DC A  11      79.530 114.566 210.476  1.00  0.00     0.102 A 
ATOM    267  C2   DC A  11      79.665 114.048 208.139  1.00  0.00     0.352 A 
ATOM    268  O2   DC A  11      79.853 114.439 206.978  1.00  0.00    -0.244 OA
ATOM    269  N3   DC A  11      79.385 112.755 208.415  1.00  0.00    -0.177 NA
ATOM    270  C4   DC A  11      79.187 112.371 209.676  1.00  0.00     0.128 A 
ATOM    271  N4   DC A  11      78.918 111.085 209.900  1.00  0.00    -0.384 N 
ATOM    272  H41  DC A  11      78.761 110.753 210.841  1.00  0.00     0.157 HD
ATOM    273  H42  DC A  11      78.876 110.441 209.123  1.00  0.00     0.157 HD
ATOM    274  C5   DC A  11      79.254 113.289 210.764  1.00  0.00     0.067 A 
ATOM    275  C2'  DC A  11      78.852 117.182 208.398  1.00  0.00     0.199 C 
ATOM    276  O2'  DC A  11      79.315 118.245 207.586  1.00  0.00    -0.388 OA
ATOM    277 2'HO  DC A  11      78.948 119.052 207.949  1.00  0.00     0.210 HD
ATOM    278  C3'  DC A  11      78.302 117.697 209.722  1.00  0.00     0.198 C 
ATOM    279  O3'  DC A  11      77.510 118.869 209.558  1.00  0.00    -0.279 OA
ATOM    280  P    DT A  12      75.944 118.733 209.212  1.00  0.00     0.408 P 
ATOM    281  OP1  DT A  12      75.386 120.107 209.133  1.00  0.00    -0.624 OA
ATOM    282  OP2  DT A  12      75.341 117.749 210.147  1.00  0.00    -0.624 OA
ATOM    283  O5'  DT A  12      75.923 118.100 207.748  1.00  0.00    -0.287 OA
ATOM    284  C5'  DT A  12      76.422 118.826 206.625  1.00  0.00     0.216 C 
ATOM    285  C4'  DT A  12      76.011 118.146 205.340  1.00  0.00     0.180 C 
ATOM    286  O4'  DT A  12      76.881 117.003 205.114  1.00  0.00    -0.353 OA
ATOM    287  C1'  DT A  12      76.128 115.921 204.594  1.00  0.00     0.264 C 
ATOM    288  N1   DT A  12      76.163 114.823 205.570  1.00  0.00    -0.280 N 
ATOM    289  C6   DT A  12      76.201 115.073 206.922  1.00  0.00     0.104 A 
ATOM    290  C2   DT A  12      76.157 113.527 205.085  1.00  0.00     0.331 A 
ATOM    291  O2   DT A  12      76.126 113.263 203.897  1.00  0.00    -0.246 OA
ATOM    292  N3   DT A  12      76.189 112.550 206.045  1.00  0.00    -0.275 N 
ATOM    293  H3   DT A  12      76.179 111.597 205.711  1.00  0.00     0.173 HD
ATOM    294  C4   DT A  12      76.228 112.728 207.409  1.00  0.00     0.250 A 
ATOM    295  O4   DT A  12      76.252 111.744 208.148  1.00  0.00    -0.268 OA
ATOM    296  C5   DT A  12      76.235 114.094 207.830  1.00  0.00     0.092 A 
ATOM    297  C2'  DT A  12      74.720 116.441 204.303  1.00  0.00     0.199 C 
ATOM    298  O2'  DT A  12      74.688 116.945 202.981  1.00  0.00    -0.388 OA
ATOM    299 2'HO  DT A  12      73.987 117.597 202.950  1.00  0.00     0.210 HD
ATOM    300  C3'  DT A  12      74.603 117.564 205.328  1.00  0.00     0.198 C 
ATOM    301  O3'  DT A  12      73.634 118.540 204.959  1.00  0.00    -0.279 OA
ATOM    302  P    DC A  13      72.084 118.300 205.311  1.00  0.00     0.408 P 
ATOM    303  OP1  DC A  13      71.353 119.539 204.942  1.00  0.00    -0.624 OA
ATOM    304  OP2  DC A  13      71.995 117.783 206.703  1.00  0.00    -0.624 OA
ATOM    305  O5'  DC A  13      71.637 117.146 204.307  1.00  0.00    -0.287 OA
ATOM    306  C5'  DC A  13      71.096 115.915 204.786  1.00  0.00     0.216 C 
ATOM    307  C4'  DC A  13      71.530 114.775 203.896  1.00  0.00     0.180 C 
ATOM    308  O4'  DC A  13      72.813 114.276 204.367  1.00  0.00    -0.353 OA
ATOM    309  C1'  DC A  13      72.820 112.859 204.333  1.00  0.00     0.264 C 
ATOM    310  N1   DC A  13      72.893 112.361 205.718  1.00  0.00    -0.278 N 
ATOM    311  C6   DC A  13      72.870 113.225 206.776  1.00  0.00     0.102 A 
ATOM    312  C2   DC A  13      72.982 110.982 205.936  1.00  0.00     0.352 A 
ATOM    313  O2   DC A  13      73.006 110.217 204.960  1.00  0.00    -0.244 OA
ATOM    314  N3   DC A  13      73.039 110.516 207.202  1.00  0.00    -0.177 NA
ATOM    315  C4   DC A  13      73.015 111.369 208.227  1.00  0.00     0.128 A 
ATOM    316  C5   DC A  13      72.928 112.778 208.037  1.00  0.00     0.067 A 
ATOM    317  C2'  DC A  13      71.566 112.415 203.583  1.00  0.00     0.199 C 
ATOM    318  C3'  DC A  13      70.610 113.559 203.903  1.00  0.00     0.198 C 
ENDROOT
BRANCH 318 319
ATOM    319  O3'  DC A  13      69.571 113.683 202.937  1.00  0.00    -0.279 OA
BRANCH 319 320
ATOM    320  P    DA A  14      68.301 112.698 203.000  1.00  0.00     0.408 P 
ATOM    321  OP2  DA A  14      67.977 112.455 204.429  1.00  0.00    -0.624 OA
ATOM    322  OP1  DA A  14      67.262 113.259 202.099  1.00  0.00    -0.624 OA
BRANCH 320 323
ATOM    323  O5'  DA A  14      68.839 111.335 202.373  1.00  0.00    -0.287 OA
BRANCH 323 324
ATOM    324  C5'  DA A  14      67.976 110.214 202.185  1.00  0.00     0.216 C 
BRANCH 324 325
ATOM    325  C4'  DA A  14      68.765 108.928 202.265  1.00  0.00     0.180 C 
ATOM    326  C3'  DA A  14      68.070 107.787 202.997  1.00  0.00     0.198 C 
ATOM    327  C2'  DA A  14      69.240 106.975 203.533  1.00  0.00     0.199 C 
ATOM    328  C1'  DA A  14      70.222 108.086 203.904  1.00  0.00     0.262 C 
ATOM    329  O4'  DA A  14      69.982 109.169 203.024  1.00  0.00    -0.353 OA
BRANCH 326 330
ATOM    330  O3'  DA A  14      67.240 107.028 202.123  1.00  0.00    -0.279 OA
BRANCH 330 331
ATOM    331  P    DG A  15      67.796 106.580 200.681  1.00  0.00     0.408 P 
ATOM    332  OP2  DG A  15      68.906 107.493 200.306  1.00  0.00    -0.624 OA
ATOM    333  OP1  DG A  15      68.039 105.117 200.737  1.00  0.00    -0.624 OA
BRANCH 331 334
ATOM    334  O5'  DG A  15      66.574 106.849 199.692  1.00  0.00    -0.287 OA
BRANCH 334 335
ATOM    335  C5'  DG A  15      65.839 105.768 199.119  1.00  0.00     0.216 C 
BRANCH 335 336
ATOM    336  C4'  DG A  15      66.530 105.267 197.871  1.00  0.00     0.180 C 
ATOM    337  C3'  DG A  15      65.799 105.527 196.561  1.00  0.00     0.198 C 
ATOM    338  C2'  DG A  15      66.375 104.438 195.661  1.00  0.00     0.199 C 
ATOM    339  C1'  DG A  15      66.414 103.267 196.640  1.00  0.00     0.262 C 
ATOM    340  O4'  DG A  15      66.629 103.815 197.932  1.00  0.00    -0.353 OA
BRANCH 337 341
ATOM    341  O3'  DG A  15      65.964 106.879 196.099  1.00  0.00    -0.279 OA
BRANCH 341 342
ATOM    342  P    DT A  16      64.804 107.619 195.255  1.00  0.00     0.408 P 
ATOM    343  OP2  DT A  16      63.507 107.080 195.739  1.00  0.00    -0.624 OA
ATOM    344  OP1  DT A  16      65.039 109.085 195.292  1.00  0.00    -0.624 OA
BRANCH 342 345
ATOM    345  O5'  DT A  16      65.020 107.104 193.762  1.00  0.00    -0.287 OA
BRANCH 345 346
ATOM    346  C5'  DT A  16      63.999 106.387 193.069  1.00  0.00     0.216 C 
BRANCH 346 347
ATOM    347  C4'  DT A  16      64.263 104.900 193.144  1.00  0.00     0.180 C 
ATOM    348  C3'  DT A  16      65.210 104.350 192.086  1.00  0.00     0.198 C 
ATOM    349  C2'  DT A  16      64.781 102.890 191.988  1.00  0.00     0.199 C 
ATOM    350  C1'  DT A  16      63.269 103.005 192.184  1.00  0.00     0.264 C 
ATOM    351  O4'  DT A  16      63.017 104.191 192.916  1.00  0.00    -0.353 OA
BRANCH 348 352
ATOM    352  O3'  DT A  16      66.576 104.484 192.475  1.00  0.00    -0.279 OA
BRANCH 352 353
ATOM    353  P    DT A  17      67.563 105.432 191.627  1.00  0.00     0.408 P 
ATOM    354  OP2  DT A  17      66.762 106.497 190.973  1.00  0.00    -0.624 OA
ATOM    355  OP1  DT A  17      68.683 105.806 192.526  1.00  0.00    -0.624 OA
BRANCH 353 356
ATOM    356  O5'  DT A  17      68.153 104.473 190.495  1.00  0.00    -0.287 OA
BRANCH 356 357
ATOM    357  C5'  DT A  17      68.485 103.110 190.769  1.00  0.00     0.216 C 
BRANCH 357 358
ATOM    358  C4'  DT A  17      69.680 102.683 189.946  1.00  0.00     0.180 C 
ATOM    359  C3'  DT A  17      70.243 101.306 190.283  1.00  0.00     0.198 C 
ATOM    360  C2'  DT A  17      71.312 101.621 191.324  1.00  0.00     0.199 C 
ATOM    361  C1'  DT A  17      71.853 102.946 190.796  1.00  0.00     0.264 C 
ATOM    362  O4'  DT A  17      70.769 103.618 190.186  1.00  0.00    -0.353 OA
BRANCH 359 363
ATOM    363  O3'  DT A  17      70.775 100.672 189.120  1.00  0.00    -0.279 OA
BRANCH 363 364
ATOM    364  P    DG A  18      70.325  99.173 188.745  1.00  0.00     0.408 P 
ATOM    365  OP2  DG A  18      68.916  99.217 188.280  1.00  0.00    -0.624 OA
ATOM    366  OP1  DG A  18      71.372  98.587 187.867  1.00  0.00    -0.624 OA
BRANCH 364 367
ATOM    367  O5'  DG A  18      70.369  98.402 190.140  1.00  0.00    -0.287 OA
BRANCH 367 368
ATOM    368  C5'  DG A  18      69.283  97.574 190.556  1.00  0.00     0.216 C 
BRANCH 368 369
ATOM    369  C4'  DG A  18      68.959  97.835 192.009  1.00  0.00     0.180 C 
ATOM    370  O4'  DG A  18      67.959  98.888 192.075  1.00  0.00    -0.353 OA
ATOM    371  C1'  DG A  18      66.722  98.350 192.503  1.00  0.00     0.262 C 
ATOM    372  C2'  DG A  18      66.854  96.828 192.491  1.00  0.00     0.199 C 
ATOM    373  C3'  DG A  18      68.345  96.659 192.761  1.00  0.00     0.198 C 
BRANCH 371 374
ATOM    374  N9   DG A  18      65.674  98.858 191.622  1.00  0.00    -0.293 N 
ATOM    375  C4   DG A  18      64.319  98.787 191.836  1.00  0.00     0.187 A 
ATOM    376  C5   DG A  18      63.743  99.395 190.741  1.00  0.00     0.173 A 
ATOM    377  N3   DG A  18      63.714  98.232 192.906  1.00  0.00    -0.044 NA
ATOM    378  C6   DG A  18      62.328  99.479 190.671  1.00  0.00     0.292 A 
ATOM    379  N7   DG A  18      64.717  99.839 189.854  1.00  0.00    -0.234 NA
ATOM    380  N1   DG A  18      61.727  98.900 191.784  1.00  0.00    -0.153 N 
ATOM    381  O6   DG A  18      61.626  99.978 189.785  1.00  0.00    -0.265 OA
ATOM    382  C2   DG A  18      62.398  98.317 192.827  1.00  0.00     0.703 A 
ATOM    383  H1   DG A  18      60.720  98.914 191.819  1.00  0.00     0.187 HD
ATOM    384  C8   DG A  18      65.843  99.500 190.419  1.00  0.00     0.214 A 
BRANCH 382 385
ATOM    385  N2   DG A  18      61.643  97.815 193.807  1.00  0.00    -0.233 N 
ATOM    386  H21  DG A  18      62.037  97.722 194.732  1.00  0.00     0.174 HD
ATOM    387  H22  DG A  18      60.691  97.532 193.627  1.00  0.00     0.174 HD
ENDBRANCH 382 385
ENDBRANCH 371 374
BRANCH 372 388
ATOM    388  O2'  DG A  18      66.078  96.297 193.546  1.00  0.00    -0.388 OA
ATOM    389 2'HO  DG A  18      65.687  95.484 193.221  1.00  0.00     0.210 HD
ENDBRANCH 372 388
BRANCH 373 390
ATOM    390  O3'  DG A  18      68.651  96.710 194.154  1.00  0.00    -0.279 OA
BRANCH 390 391
ATOM    391  P    DG A  19      69.102  95.370 194.923  1.00  0.00     0.408 P 
ATOM    392  OP1  DG A  19      69.969  94.602 193.994  1.00  0.00    -0.624 OA
ATOM    393  OP2  DG A  19      67.892  94.725 195.496  1.00  0.00    -0.624 OA
BRANCH 391 394
ATOM    394  O5'  DG A  19      70.018  95.898 196.117  1.00  0.00    -0.287 OA
BRANCH 394 395
ATOM    395  C5'  DG A  19      69.445  96.447 197.304  1.00  0.00     0.216 C 
BRANCH 395 396
ATOM    396  C4'  DG A  19      69.929  97.863 197.507  1.00  0.00     0.180 C 
ATOM    397  O4'  DG A  19      68.779  98.705 197.803  1.00  0.00    -0.353 OA
ATOM    398  C1'  DG A  19      68.942  99.309 199.071  1.00  0.00     0.262 C 
ATOM    399  C2'  DG A  19      69.982  98.479 199.817  1.00  0.00     0.199 C 
ATOM    400  C3'  DG A  19      70.897  98.057 198.673  1.00  0.00     0.198 C 
BRANCH 398 401
ATOM    401  N9   DG A  19      67.636  99.367 199.720  1.00  0.00    -0.293 N 
ATOM    402  C4   DG A  19      67.248 100.255 200.695  1.00  0.00     0.187 A 
ATOM    403  N3   DG A  19      68.012 101.232 201.227  1.00  0.00    -0.044 NA
ATOM    404  C5   DG A  19      65.942  99.926 200.991  1.00  0.00     0.173 A 
ATOM    405  C2   DG A  19      67.359 101.924 202.143  1.00  0.00     0.703 A 
ATOM    406  N1   DG A  19      66.061 101.680 202.510  1.00  0.00    -0.153 N 
ATOM    407  H1   DG A  19      65.653 102.267 203.220  1.00  0.00     0.187 HD
ATOM    408  C6   DG A  19      65.254 100.680 201.979  1.00  0.00     0.292 A 
ATOM    409  O6   DG A  19      64.095 100.546 202.385  1.00  0.00    -0.265 OA
ATOM    410  N7   DG A  19      65.516  98.852 200.220  1.00  0.00    -0.234 NA
ATOM    411  C8   DG A  19      66.553  98.556 199.485  1.00  0.00     0.214 A 
BRANCH 405 412
ATOM    412  N2   DG A  19      67.969 102.932 202.772  1.00  0.00    -0.233 N 
ATOM    413  H21  DG A  19      68.779 103.358 202.343  1.00  0.00     0.174 HD
ATOM    414  H22  DG A  19      67.629 103.263 203.662  1.00  0.00     0.174 HD
ENDBRANCH 405 412
ENDBRANCH 398 401
BRANCH 399 415
ATOM    415  O2'  DG A  19      70.664  99.318 200.731  1.00  0.00    -0.388 OA
ATOM    416 2'HO  DG A  19      71.464  99.605 200.289  1.00  0.00     0.210 HD
ENDBRANCH 399 415
BRANCH 400 417
ATOM    417  O3'  DG A  19      71.879  99.047 198.376  1.00  0.00    -0.279 OA
BRANCH 417 418
ATOM    418  P    DG A  20      73.425  98.774 198.732  1.00  0.00     0.408 P 
ATOM    419  OP2  DG A  20      73.624  99.021 200.182  1.00  0.00    -0.624 OA
ATOM    420  OP1  DG A  20      73.779  97.450 198.157  1.00  0.00    -0.624 OA
BRANCH 418 421
ATOM    421  O5'  DG A  20      74.213  99.895 197.919  1.00  0.00    -0.287 OA
BRANCH 421 422
ATOM    422  C5'  DG A  20      75.300 100.606 198.512  1.00  0.00     0.216 C 
BRANCH 422 423
ATOM    423  C4'  DG A  20      75.249 102.063 198.114  1.00  0.00     0.180 C 
ATOM    424  C3'  DG A  20      73.894 102.563 197.625  1.00  0.00     0.198 C 
ATOM    425  C2'  DG A  20      74.278 103.694 196.679  1.00  0.00     0.199 C 
ATOM    426  C1'  DG A  20      75.539 103.119 196.034  1.00  0.00     0.262 C 
ATOM    427  O4'  DG A  20      76.151 102.273 196.991  1.00  0.00    -0.353 OA
BRANCH 424 428
ATOM    428  O3'  DG A  20      73.078 103.013 198.702  1.00  0.00    -0.279 OA
BRANCH 428 429
ATOM    429  P    DA A  21      71.500 102.698 198.694  1.00  0.00     0.408 P 
ATOM    430  OP2  DA A  21      71.127 102.218 197.340  1.00  0.00    -0.624 OA
ATOM    431  OP1  DA A  21      71.218 101.844 199.877  1.00  0.00    -0.624 OA
BRANCH 429 432
ATOM    432  O5'  DA A  21      70.816 104.116 198.940  1.00  0.00    -0.287 OA
BRANCH 432 433
ATOM    433  C5'  DA A  21      70.167 104.819 197.879  1.00  0.00     0.216 C 
BRANCH 433 434
ATOM    434  C4'  DA A  21      71.068 105.912 197.352  1.00  0.00     0.180 C 
ATOM    435  O4'  DA A  21      70.279 106.806 196.521  1.00  0.00    -0.353 OA
ATOM    436  C1'  DA A  21      70.717 108.140 196.703  1.00  0.00     0.262 C 
ATOM    437  C2'  DA A  21      71.921 108.116 197.647  1.00  0.00     0.199 C 
ATOM    438  C3'  DA A  21      71.686 106.816 198.410  1.00  0.00     0.198 C 
BRANCH 436 439
ATOM    439  N9   DA A  21      69.597 108.928 197.212  1.00  0.00    -0.294 N 
ATOM    440  C8   DA A  21      68.263 108.603 197.199  1.00  0.00     0.214 A 
ATOM    441  N7   DA A  21      67.492 109.516 197.740  1.00  0.00    -0.236 NA
ATOM    442  C5   DA A  21      68.378 110.509 198.134  1.00  0.00     0.149 A 
ATOM    443  C6   DA A  21      68.190 111.748 198.772  1.00  0.00     0.155 A 
ATOM    444  C4   DA A  21      69.677 110.161 197.813  1.00  0.00     0.167 A 
ATOM    445  N1   DA A  21      69.283 112.500 199.020  1.00  0.00    -0.222 NA
ATOM    446  C2   DA A  21      70.481 112.031 198.650  1.00  0.00     0.237 A 
ATOM    447  N3   DA A  21      70.786 110.884 198.045  1.00  0.00    -0.222 NA
BRANCH 443 448
ATOM    448  N6   DA A  21      66.998 112.216 199.143  1.00  0.00    -0.382 N 
ATOM    449  H61  DA A  21      66.165 111.914 198.658  1.00  0.00     0.157 HD
ATOM    450  H62  DA A  21      66.935 112.870 199.909  1.00  0.00     0.157 HD
ENDBRANCH 443 448
ENDBRANCH 436 439
BRANCH 437 451
ATOM    451  O2'  DA A  21      73.101 108.044 196.870  1.00  0.00    -0.388 OA
ATOM    452 2'HO  DA A  21      72.961 108.611 196.110  1.00  0.00     0.210 HD
ENDBRANCH 437 451
BRANCH 438 453
ATOM    453  O3'  DA A  21      72.896 106.266 198.924  1.00  0.00    -0.279 OA
BRANCH 453 454
ATOM    454  P    DG A  22      73.343 106.585 200.437  1.00  0.00     0.408 P 
ATOM    455  OP2  DG A  22      72.268 107.373 201.093  1.00  0.00    -0.624 OA
ATOM    456  OP1  DG A  22      73.784 105.302 201.041  1.00  0.00    -0.624 OA
BRANCH 454 457
ATOM    457  O5'  DG A  22      74.627 107.516 200.271  1.00  0.00    -0.287 OA
BRANCH 457 458
ATOM    458  C5'  DG A  22      75.594 107.268 199.251  1.00  0.00     0.216 C 
BRANCH 458 459
ATOM    459  C4'  DG A  22      76.871 108.016 199.556  1.00  0.00     0.180 C 
ATOM    460  O4'  DG A  22      76.909 109.228 198.748  1.00  0.00    -0.353 OA
ATOM    461  C1'  DG A  22      77.315 110.323 199.550  1.00  0.00     0.262 C 
ATOM    462  C2'  DG A  22      77.906 109.730 200.825  1.00  0.00     0.199 C 
ATOM    463  C3'  DG A  22      77.027 108.499 200.994  1.00  0.00     0.198 C 
BRANCH 461 464
ATOM    464  N9   DG A  22      76.156 111.182 199.782  1.00  0.00    -0.293 N 
ATOM    465  C8   DG A  22      74.845 110.899 199.491  1.00  0.00     0.214 A 
ATOM    466  N7   DG A  22      74.025 111.859 199.819  1.00  0.00    -0.234 NA
ATOM    467  C5   DG A  22      74.847 112.840 200.360  1.00  0.00     0.173 A 
ATOM    468  C4   DG A  22      76.166 112.437 200.344  1.00  0.00     0.187 A 
ATOM    469  C6   DG A  22      74.529 114.117 200.890  1.00  0.00     0.292 A 
ATOM    470  N3   DG A  22      77.255 113.105 200.778  1.00  0.00    -0.044 NA
ATOM    471  C2   DG A  22      76.943 114.292 201.268  1.00  0.00     0.703 A 
ATOM    472  N1   DG A  22      75.666 114.786 201.329  1.00  0.00    -0.153 N 
ATOM    473  H1   DG A  22      75.537 115.706 201.721  1.00  0.00     0.187 HD
ATOM    474  O6   DG A  22      73.420 114.655 200.995  1.00  0.00    -0.265 OA
BRANCH 471 475
ATOM    475  N2   DG A  22      77.903 115.090 201.743  1.00  0.00    -0.233 N 
ATOM    476  H21  DG A  22      77.747 116.087 201.775  1.00  0.00     0.174 HD
ATOM    477  H22  DG A  22      78.776 114.699 202.069  1.00  0.00     0.174 HD
ENDBRANCH 471 475
ENDBRANCH 461 464
BRANCH 462 478
ATOM    478  O2'  DG A  22      79.252 109.368 200.578  1.00  0.00    -0.388 OA
ATOM    479 2'HO  DG A  22      79.665 110.121 200.155  1.00  0.00     0.210 HD
ENDBRANCH 462 478
BRANCH 463 480
ATOM    480  O3'  DG A  22      77.628 107.508 201.824  1.00  0.00    -0.279 OA
BRANCH 480 481
ATOM    481  P    DA A  23      76.733 106.717 202.901  1.00  0.00     0.408 P 
ATOM    482  OP2  DA A  23      75.544 107.542 203.230  1.00  0.00    -0.624 OA
ATOM    483  OP1  DA A  23      76.546 105.335 202.392  1.00  0.00    -0.624 OA
BRANCH 481 484
ATOM    484  O5'  DA A  23      77.659 106.645 204.196  1.00  0.00    -0.287 OA
BRANCH 484 485
ATOM    485  C5'  DA A  23      79.047 106.963 204.127  1.00  0.00     0.216 C 
BRANCH 485 486
ATOM    486  C4'  DA A  23      79.373 108.092 205.078  1.00  0.00     0.180 C 
ATOM    487  O4'  DA A  23      78.183 108.910 205.269  1.00  0.00    -0.353 OA
ATOM    488  C1'  DA A  23      78.071 109.278 206.633  1.00  0.00     0.262 C 
ATOM    489  C2'  DA A  23      79.387 108.894 207.305  1.00  0.00     0.199 C 
ATOM    490  C3'  DA A  23      79.776 107.672 206.485  1.00  0.00     0.198 C 
BRANCH 488 491
ATOM    491  N9   DA A  23      76.901 108.604 207.198  1.00  0.00    -0.294 N 
ATOM    492  C8   DA A  23      75.796 108.142 206.527  1.00  0.00     0.214 A 
ATOM    493  N7   DA A  23      74.901 107.582 207.305  1.00  0.00    -0.236 NA
ATOM    494  C5   DA A  23      75.456 107.680 208.574  1.00  0.00     0.149 A 
ATOM    495  C6   DA A  23      75.000 107.270 209.838  1.00  0.00     0.155 A 
ATOM    496  C4   DA A  23      76.688 108.306 208.522  1.00  0.00     0.167 A 
ATOM    497  N1   DA A  23      75.795 107.516 210.903  1.00  0.00    -0.222 NA
ATOM    498  C2   DA A  23      76.965 108.134 210.698  1.00  0.00     0.237 A 
ATOM    499  N3   DA A  23      77.502 108.567 209.559  1.00  0.00    -0.222 NA
BRANCH 495 500
ATOM    500  N6   DA A  23      73.834 106.657 210.042  1.00  0.00    -0.382 N 
ATOM    501  H62  DA A  23      73.625 105.790 209.565  1.00  0.00     0.157 HD
ATOM    502  H61  DA A  23      73.158 107.064 210.671  1.00  0.00     0.157 HD
ENDBRANCH 495 500
ENDBRANCH 488 491
BRANCH 489 503
ATOM    503  O2'  DA A  23      80.313 109.950 207.128  1.00  0.00    -0.388 OA
ATOM    504 2'HO  DA A  23      80.023 110.443 206.360  1.00  0.00     0.210 HD
ENDBRANCH 489 503
BRANCH 490 505
ATOM    505  O3'  DA A  23      81.166 107.371 206.570  1.00  0.00    -0.279 OA
BRANCH 505 506
ATOM    506  P    DG A  24      82.226 108.249 205.736  1.00  0.00     0.408 P 
ATOM    507  OP1  DG A  24      83.134 108.893 206.719  1.00  0.00    -0.624 OA
ATOM    508  OP2  DG A  24      81.487 109.090 204.759  1.00  0.00    -0.624 OA
BRANCH 506 509
ATOM    509  O5'  DG A  24      83.065 107.165 204.923  1.00  0.00    -0.287 OA
BRANCH 509 510
ATOM    510  C5'  DG A  24      83.932 107.554 203.859  1.00  0.00     0.216 C 
BRANCH 510 511
ATOM    511  C4'  DG A  24      83.739 106.640 202.672  1.00  0.00     0.180 C 
ATOM    512  O4'  DG A  24      82.521 107.018 201.978  1.00  0.00    -0.353 OA
ATOM    513  C1'  DG A  24      82.695 106.852 200.582  1.00  0.00     0.262 C 
ATOM    514  C2'  DG A  24      84.094 106.278 200.345  1.00  0.00     0.199 C 
ATOM    515  C3'  DG A  24      84.823 106.723 201.608  1.00  0.00     0.198 C 
BRANCH 513 516
ATOM    516  N9   DG A  24      82.476 108.143 199.936  1.00  0.00    -0.293 N 
ATOM    517  C4   DG A  24      82.194 108.353 198.608  1.00  0.00     0.187 A 
ATOM    518  N3   DG A  24      82.078 107.400 197.661  1.00  0.00    -0.044 NA
ATOM    519  C5   DG A  24      82.062 109.720 198.474  1.00  0.00     0.173 A 
ATOM    520  C2   DG A  24      81.803 107.913 196.476  1.00  0.00     0.703 A 
ATOM    521  N1   DG A  24      81.653 109.254 196.236  1.00  0.00    -0.153 N 
ATOM    522  H1   DG A  24      81.445 109.542 195.292  1.00  0.00     0.187 HD
ATOM    523  C6   DG A  24      81.765 110.255 197.194  1.00  0.00     0.292 A 
ATOM    524  O6   DG A  24      81.608 111.436 196.869  1.00  0.00    -0.265 OA
ATOM    525  N7   DG A  24      82.260 110.356 199.692  1.00  0.00    -0.234 NA
ATOM    526  C8   DG A  24      82.505 109.383 200.526  1.00  0.00     0.214 A 
BRANCH 520 527
ATOM    527  N2   DG A  24      81.655 107.106 195.422  1.00  0.00    -0.233 N 
ATOM    528  H21  DG A  24      82.415 106.496 195.159  1.00  0.00     0.174 HD
ATOM    529  H22  DG A  24      80.797 107.108 194.889  1.00  0.00     0.174 HD
ENDBRANCH 520 527
ENDBRANCH 513 516
BRANCH 514 530
ATOM    530  O2'  DG A  24      83.999 104.868 200.283  1.00  0.00    -0.388 OA
ATOM    531 2'HO  DG A  24      84.706 104.572 199.708  1.00  0.00     0.210 HD
ENDBRANCH 514 530
BRANCH 515 532
ATOM    532  O3'  DG A  24      85.925 105.878 201.925  1.00  0.00    -0.279 OA
BRANCH 532 533
ATOM    533  P    DC A  25      85.813 104.848 203.153  1.00  0.00     0.408 P 
ATOM    534  OP2  DC A  25      86.267 105.542 204.385  1.00  0.00    -0.624 OA
ATOM    535  OP1  DC A  25      84.450 104.258 203.104  1.00  0.00    -0.624 OA
BRANCH 533 536
ATOM    536  O5'  DC A  25      86.870 103.711 202.798  1.00  0.00    -0.287 OA
BRANCH 536 537
ATOM    537  C5'  DC A  25      88.272 103.933 202.950  1.00  0.00     0.216 C 
BRANCH 537 538
ATOM    538  C4'  DC A  25      88.716 103.528 204.337  1.00  0.00     0.180 C 
ATOM    539  O4'  DC A  25      87.570 102.990 205.049  1.00  0.00    -0.353 OA
ATOM    540  C1'  DC A  25      87.976 101.903 205.860  1.00  0.00     0.264 C 
ATOM    541  C2'  DC A  25      89.495 101.764 205.743  1.00  0.00     0.199 C 
ATOM    542  C3'  DC A  25      89.766 102.426 204.395  1.00  0.00     0.198 C 
ATOM    543  O2'  DC A  25      90.098 102.492 206.795  1.00  0.00    -0.388 OA
ATOM    544  O3'  DC A  25      91.088 102.954 204.326  1.00  0.00    -0.279 OA
ATOM    545  P    DG A  26      91.751 103.286 202.897  1.00  0.00     0.408 P 
ATOM    546  OP1  DG A  26      92.183 104.707 202.939  1.00  0.00    -0.624 OA
ATOM    547  OP2  DG A  26      90.848 102.827 201.815  1.00  0.00    -0.624 OA
ATOM    548  O5'  DG A  26      93.063 102.382 202.858  1.00  0.00    -0.287 OA
ATOM    549  C5'  DG A  26      93.805 102.102 204.046  1.00  0.00     0.216 C 
ATOM    550  C4'  DG A  26      94.038 100.614 204.173  1.00  0.00     0.180 C 
ATOM    551  O4'  DG A  26      92.768  99.971 204.470  1.00  0.00    -0.353 OA
ATOM    552  C3'  DG A  26      94.545  99.926 202.912  1.00  0.00     0.198 C 
ATOM    553  C1'  DG A  26      92.638  98.785 203.708  1.00  0.00     0.262 C 
ATOM    554  N9   DG A  26      91.539  98.969 202.764  1.00  0.00    -0.293 N 
ATOM    555  C2'  DG A  26      93.988  98.514 203.048  1.00  0.00     0.199 C 
ATOM    556  C8   DG A  26      91.476  99.868 201.727  1.00  0.00     0.214 A 
ATOM    557  C4   DG A  26      90.354  98.273 202.745  1.00  0.00     0.187 A 
ATOM    558  N7   DG A  26      90.358  99.805 201.058  1.00  0.00    -0.234 NA
ATOM    559  C5   DG A  26      89.637  98.801 201.690  1.00  0.00     0.173 A 
ATOM    560  C6   DG A  26      88.345  98.282 201.415  1.00  0.00     0.292 A 
ATOM    561  N1   DG A  26      88.002  97.268 202.302  1.00  0.00    -0.153 N 
ATOM    562  O6   DG A  26      87.551  98.618 200.531  1.00  0.00    -0.265 OA
ATOM    563  C2   DG A  26      88.794  96.813 203.323  1.00  0.00     0.703 A 
ATOM    564  H1   DG A  26      87.099  96.835 202.182  1.00  0.00     0.187 HD
ATOM    565  N2   DG A  26      88.286  95.828 204.066  1.00  0.00    -0.233 N 
ATOM    566  N3   DG A  26      89.997  97.288 203.595  1.00  0.00    -0.044 NA
ATOM    567  H21  DG A  26      88.835  95.457 204.832  1.00  0.00     0.174 HD
ATOM    568  H22  DG A  26      87.370  95.450 203.870  1.00  0.00     0.174 HD
ATOM    569  O2'  DG A  26      94.777  97.738 203.929  1.00  0.00    -0.388 OA
ATOM    570 2'HO  DG A  26      95.670  98.082 203.875  1.00  0.00     0.210 HD
ATOM    571  O3'  DG A  26      95.969  99.941 202.841  1.00  0.00    -0.279 OA
ATOM    572  P    DC A  27      96.698 100.177 201.425  1.00  0.00     0.408 P 
ATOM    573  O5'  DC A  27      96.588  98.764 200.693  1.00  0.00    -0.287 OA
ATOM    574  OP1  DC A  27      98.131 100.450 201.705  1.00  0.00    -0.624 OA
ATOM    575  OP2  DC A  27      95.904 101.160 200.645  1.00  0.00    -0.624 OA
ATOM    576  C5'  DC A  27      97.607  97.773 200.840  1.00  0.00     0.216 C 
ATOM    577  C4'  DC A  27      96.986  96.402 200.985  1.00  0.00     0.180 C 
ATOM    578  O4'  DC A  27      95.590  96.540 201.368  1.00  0.00    -0.353 OA
ATOM    579  C3'  DC A  27      96.940  95.568 199.712  1.00  0.00     0.198 C 
ATOM    580  C1'  DC A  27      94.817  95.537 200.730  1.00  0.00     0.264 C 
ATOM    581  N1   DC A  27      93.837  96.190 199.845  1.00  0.00    -0.278 N 
ATOM    582  C2'  DC A  27      95.785  94.616 199.989  1.00  0.00     0.199 C 
ATOM    583  C2   DC A  27      92.838  95.411 199.252  1.00  0.00     0.352 A 
ATOM    584  C6   DC A  27      93.895  97.534 199.602  1.00  0.00     0.102 A 
ATOM    585  N3   DC A  27      91.932  96.000 198.443  1.00  0.00    -0.177 NA
ATOM    586  O2   DC A  27      92.807  94.193 199.484  1.00  0.00    -0.244 OA
ATOM    587  C4   DC A  27      91.996  97.313 198.215  1.00  0.00     0.128 A 
ATOM    588  N4   DC A  27      91.079  97.849 197.412  1.00  0.00    -0.384 N 
ATOM    589  C5   DC A  27      93.004  98.133 198.801  1.00  0.00     0.067 A 
ATOM    590  H42  DC A  27      90.369  97.258 197.003  1.00  0.00     0.157 HD
ATOM    591  H41  DC A  27      91.090  98.839 197.213  1.00  0.00     0.157 HD
ATOM    592  O2'  DC A  27      96.177  93.573 200.862  1.00  0.00    -0.388 OA
ATOM    593 2'HO  DC A  27      97.133  93.587 200.899  1.00  0.00     0.210 HD
ATOM    594  O3'  DC A  27      98.169  94.885 199.483  1.00  0.00    -0.279 OA
ATOM    595  P    DT A  28      98.568  94.439 197.990  1.00  0.00     0.408 P 
ATOM    596  OP1  DT A  28      99.956  93.912 198.039  1.00  0.00    -0.624 OA
ATOM    597  OP2  DT A  28      98.238  95.551 197.062  1.00  0.00    -0.624 OA
ATOM    598  O5'  DT A  28      97.586  93.223 197.676  1.00  0.00    -0.287 OA
ATOM    599  C5'  DT A  28      97.598  92.045 198.481  1.00  0.00     0.216 C 
ATOM    600  C4'  DT A  28      96.596  91.044 197.953  1.00  0.00     0.180 C 
ATOM    601  O4'  DT A  28      95.253  91.545 198.196  1.00  0.00    -0.353 OA
ATOM    602  C3'  DT A  28      96.637  90.798 196.452  1.00  0.00     0.198 C 
ATOM    603  C1'  DT A  28      94.412  91.203 197.108  1.00  0.00     0.264 C 
ATOM    604  C2'  DT A  28      95.222  90.312 196.167  1.00  0.00     0.199 C 
ATOM    605  N1   DT A  28      93.934  92.443 196.480  1.00  0.00    -0.280 N 
ATOM    606  O2'  DT A  28      95.054  88.964 196.565  1.00  0.00    -0.388 OA
ATOM    607 2'HO  DT A  28      95.923  88.630 196.791  1.00  0.00     0.210 HD
ATOM    608  C2   DT A  28      92.753  92.386 195.763  1.00  0.00     0.331 A 
ATOM    609  C6   DT A  28      94.636  93.622 196.598  1.00  0.00     0.104 A 
ATOM    610  N3   DT A  28      92.360  93.574 195.202  1.00  0.00    -0.275 N 
ATOM    611  O2   DT A  28      92.104  91.366 195.634  1.00  0.00    -0.246 OA
ATOM    612  C4   DT A  28      93.009  94.784 195.282  1.00  0.00     0.250 A 
ATOM    613  H3   DT A  28      91.500  93.550 194.673  1.00  0.00     0.173 HD
ATOM    614  O4   DT A  28      92.523  95.769 194.726  1.00  0.00    -0.268 OA
ATOM    615  C5   DT A  28      94.220  94.761 196.038  1.00  0.00     0.092 A 
ATOM    616  O3'  DT A  28      97.626  89.836 196.097  1.00  0.00    -0.279 OA
ATOM    617  P    DT A  29      98.177  89.776 194.587  1.00  0.00     0.408 P 
ATOM    618  OP1  DT A  29      99.271  88.773 194.552  1.00  0.00    -0.624 OA
ATOM    619  OP2  DT A  29      98.439  91.164 194.126  1.00  0.00    -0.624 OA
ATOM    620  O5'  DT A  29      96.948  89.202 193.749  1.00  0.00    -0.287 OA
ATOM    621  C5'  DT A  29      96.361  87.943 194.076  1.00  0.00     0.216 C 
ATOM    622  C4'  DT A  29      95.247  87.618 193.107  1.00  0.00     0.180 C 
ATOM    623  C3'  DT A  29      95.536  87.913 191.644  1.00  0.00     0.198 C 
ATOM    624  O4'  DT A  29      94.092  88.448 193.405  1.00  0.00    -0.353 OA
ATOM    625  O3'  DT A  29      96.293  86.874 191.031  1.00  0.00    -0.279 OA
ATOM    626  C2'  DT A  29      94.133  88.037 191.065  1.00  0.00     0.199 C 
ATOM    627  P    DC A  30      97.228  87.206 189.765  1.00  0.00     0.408 P 
ATOM    628  OP1  DC A  30      97.999  85.977 189.448  1.00  0.00    -0.624 OA
ATOM    629  O5'  DC A  30      96.193  87.462 188.581  1.00  0.00    -0.287 OA
ATOM    630  OP2  DC A  30      97.949  88.477 190.030  1.00  0.00    -0.624 OA
ATOM    631  C5'  DC A  30      95.207  86.489 188.242  1.00  0.00     0.216 C 
ATOM    632  C4'  DC A  30      94.194  87.082 187.293  1.00  0.00     0.180 C 
ATOM    633  O4'  DC A  30      93.427  88.102 187.987  1.00  0.00    -0.353 OA
ATOM    634  C3'  DC A  30      94.772  87.819 186.094  1.00  0.00     0.198 C 
ATOM    635  C1'  DC A  30      93.091  89.142 187.083  1.00  0.00     0.264 C 
ATOM    636  C2'  DC A  30      93.630  88.748 185.707  1.00  0.00     0.199 C 
ATOM    637  N1   DC A  30      93.654  90.405 187.592  1.00  0.00    -0.278 N 
ATOM    638  O2'  DC A  30      92.616  88.051 185.007  1.00  0.00    -0.388 OA
ATOM    639 2'HO  DC A  30      93.017  87.256 184.656  1.00  0.00     0.210 HD
ATOM    640  C2   DC A  30      93.066  91.609 187.197  1.00  0.00     0.352 A 
ATOM    641  C6   DC A  30      94.733  90.407 188.432  1.00  0.00     0.102 A 
ATOM    642  N3   DC A  30      93.575  92.775 187.655  1.00  0.00    -0.177 NA
ATOM    643  O2   DC A  30      92.090  91.580 186.436  1.00  0.00    -0.244 OA
ATOM    644  C4   DC A  30      94.623  92.767 188.478  1.00  0.00     0.128 A 
ATOM    645  N4   DC A  30      95.087  93.941 188.904  1.00  0.00    -0.384 N 
ATOM    646  C5   DC A  30      95.243  91.555 188.898  1.00  0.00     0.067 A 
ATOM    647  H42  DC A  30      94.639  94.794 188.600  1.00  0.00     0.157 HD
ATOM    648  H41  DC A  30      95.879  93.980 189.528  1.00  0.00     0.157 HD
ATOM    649  O3'  DC A  30      95.132  86.924 185.045  1.00  0.00    -0.279 OA
ATOM    650  P    DA A  31      96.287  87.336 184.004  1.00  0.00     0.408 P 
ATOM    651  OP1  DA A  31      96.611  86.130 183.202  1.00  0.00    -0.624 OA
ATOM    652  O5'  DA A  31      95.580  88.395 183.047  1.00  0.00    -0.287 OA
ATOM    653  OP2  DA A  31      97.367  88.033 184.750  1.00  0.00    -0.624 OA
ATOM    654  C5'  DA A  31      94.442  88.033 182.266  1.00  0.00     0.216 C 
ATOM    655  C4'  DA A  31      93.970  89.216 181.452  1.00  0.00     0.180 C 
ATOM    656  O4'  DA A  31      93.317  90.171 182.332  1.00  0.00    -0.353 OA
ATOM    657  C3'  DA A  31      95.063  90.027 180.772  1.00  0.00     0.198 C 
ATOM    658  C1'  DA A  31      93.600  91.490 181.896  1.00  0.00     0.262 C 
ATOM    659  N9   DA A  31      94.328  92.183 182.959  1.00  0.00    -0.294 N 
ATOM    660  C2'  DA A  31      94.389  91.382 180.591  1.00  0.00     0.199 C 
ATOM    661  C4   DA A  31      94.359  93.541 183.169  1.00  0.00     0.167 A 
ATOM    662  C8   DA A  31      95.115  91.634 183.940  1.00  0.00     0.214 A 
ATOM    663  C5   DA A  31      95.171  93.732 184.272  1.00  0.00     0.149 A 
ATOM    664  N3   DA A  31      93.735  94.491 182.453  1.00  0.00    -0.222 NA
ATOM    665  N7   DA A  31      95.641  92.517 184.752  1.00  0.00    -0.236 NA
ATOM    666  C6   DA A  31      95.369  95.058 184.695  1.00  0.00     0.155 A 
ATOM    667  N1   DA A  31      94.758  96.039 183.996  1.00  0.00    -0.222 NA
ATOM    668  C2   DA A  31      93.999  95.699 182.946  1.00  0.00     0.237 A 
ATOM    669  O2'  DT A  29      93.538  86.764 190.890  1.00  0.00    -0.388 OA
ATOM    670  C1'  DT A  29      93.411  88.763 192.201  1.00  0.00     0.264 C 
ATOM    671 2'HO  DT A  29      94.240  86.118 190.977  1.00  0.00     0.210 HD
ATOM    672  N1   DT A  29      93.390  90.224 192.044  1.00  0.00    -0.280 N 
ATOM    673  C2   DT A  29      92.355  90.781 191.313  1.00  0.00     0.331 A 
ATOM    674  C6   DT A  29      94.366  91.017 192.604  1.00  0.00     0.104 A 
ATOM    675  O2   DT A  29      91.471  90.116 190.803  1.00  0.00    -0.246 OA
ATOM    676  N3   DT A  29      92.392  92.147 191.201  1.00  0.00    -0.275 N 
ATOM    677  C4   DT A  29      93.333  92.996 191.734  1.00  0.00     0.250 A 
ATOM    678  H3   DT A  29      91.648  92.573 190.669  1.00  0.00     0.173 HD
ATOM    679  O4   DT A  29      93.231  94.207 191.543  1.00  0.00    -0.268 OA
ATOM    680  C5   DT A  29      94.369  92.347 192.475  1.00  0.00     0.092 A 
ATOM    681 2'HO  DC A  25      90.870 102.921 206.423  1.00  0.00     0.210 HD
BRANCH 540 682
ATOM    682  N1   DC A  25      87.236 100.705 205.432  1.00  0.00    -0.278 N 
ATOM    683  C2   DC A  25      87.338  99.540 206.197  1.00  0.00     0.352 A 
ATOM    684  N3   DC A  25      86.665  98.434 205.809  1.00  0.00    -0.177 NA
ATOM    685  O2   DC A  25      88.044  99.548 207.216  1.00  0.00    -0.244 OA
ATOM    686  C4   DC A  25      85.912  98.463 204.709  1.00  0.00     0.128 A 
ATOM    687  N4   DC A  25      85.264  97.348 204.370  1.00  0.00    -0.384 N 
ATOM    688  C5   DC A  25      85.788  99.637 203.910  1.00  0.00     0.067 A 
ATOM    689  H42  DC A  25      85.349  96.524 204.947  1.00  0.00     0.157 HD
ATOM    690  H41  DC A  25      84.682  97.328 203.545  1.00  0.00     0.157 HD
ATOM    691  C6   DC A  25      86.461 100.725 204.306  1.00  0.00     0.102 A 
ENDBRANCH 540 682
BRANCH 666 692
ATOM    692  N6   DA A  31      96.121  95.396 185.742  1.00  0.00    -0.382 N 
ATOM    693  H62  DA A  31      96.406  96.359 185.867  1.00  0.00     0.157 HD
ATOM    694  H61  DA A  31      96.403  94.692 186.408  1.00  0.00     0.157 HD
ENDBRANCH 666 692
BRANCH 660 695
ATOM    695  O2'  DA A  31      93.476  91.358 179.510  1.00  0.00    -0.388 OA
ATOM    696 2'HO  DA A  31      93.865  90.803 178.833  1.00  0.00     0.210 HD
ENDBRANCH 660 695
BRANCH 657 697
ATOM    697  O3'  DA A  31      95.466  89.449 179.534  1.00  0.00    -0.279 OA
BRANCH 697 698
ATOM    698  P    DA A  32      96.907  89.810 178.917  1.00  0.00     0.408 P 
ATOM    699  OP2  DA A  32      97.936  89.577 179.961  1.00  0.00    -0.624 OA
ATOM    700  OP1  DA A  32      97.014  89.108 177.612  1.00  0.00    -0.624 OA
BRANCH 698 701
ATOM    701  O5'  DA A  32      96.824  91.376 178.633  1.00  0.00    -0.287 OA
ATOM    702  C5'  DA A  32      95.906  91.899 177.675  1.00  0.00     0.216 C 
ATOM    703  C4'  DA A  32      95.842  93.407 177.774  1.00  0.00     0.180 C 
ATOM    704  C3'  DA A  32      97.120  94.150 177.422  1.00  0.00     0.198 C 
ATOM    705  O4'  DA A  32      95.611  93.804 179.146  1.00  0.00    -0.353 OA
ATOM    706  O3'  DA A  32      97.281  94.271 176.010  1.00  0.00    -0.279 OA
ATOM    707  C2'  DA A  32      96.919  95.505 178.101  1.00  0.00     0.199 C 
ATOM    708  P    DT A  33      98.758  94.317 175.375  1.00  0.00     0.408 P 
ATOM    709  OP1  DT A  33      98.626  94.829 173.988  1.00  0.00    -0.624 OA
ATOM    710  OP2  DT A  33      99.408  93.004 175.614  1.00  0.00    -0.624 OA
ATOM    711  O5'  DT A  33      99.517  95.416 176.243  1.00  0.00    -0.287 OA
ATOM    712  C5'  DT A  33      99.252  96.806 176.065  1.00  0.00     0.216 C 
ATOM    713  C4'  DT A  33     100.182  97.629 176.925  1.00  0.00     0.180 C 
ATOM    714  O4'  DT A  33      99.797  97.487 178.315  1.00  0.00    -0.353 OA
ATOM    715  C3'  DT A  33     101.641  97.201 176.900  1.00  0.00     0.198 C 
ATOM    716  C1'  DT A  33     100.948  97.567 179.137  1.00  0.00     0.264 C 
ATOM    717  N1   DT A  33     100.999  96.361 179.976  1.00  0.00    -0.280 N 
ATOM    718  C2'  DT A  33     102.168  97.738 178.227  1.00  0.00     0.199 C 
ATOM    719  C2   DT A  33     101.266  96.524 181.323  1.00  0.00     0.331 A 
ATOM    720  C6   DT A  33     100.789  95.110 179.443  1.00  0.00     0.104 A 
ATOM    721  N3   DT A  33     101.308  95.363 182.051  1.00  0.00    -0.275 N 
ATOM    722  O2   DT A  33     101.451  97.614 181.836  1.00  0.00    -0.246 OA
ATOM    723  H3   DT A  33     101.513  95.457 183.035  1.00  0.00     0.173 HD
ATOM    724  C4   DT A  33     101.110  94.085 181.583  1.00  0.00     0.250 A 
ATOM    725  C5   DT A  33     100.835  93.999 180.183  1.00  0.00     0.092 A 
ATOM    726  O4   DT A  33     101.177  93.139 182.367  1.00  0.00    -0.268 OA
ATOM    727  O2'  DT A  33     102.467  99.118 178.135  1.00  0.00    -0.388 OA
ATOM    728 2'HO  DT A  33     102.709  99.294 177.226  1.00  0.00     0.210 HD
ATOM    729  O3'  DT A  33     102.324  97.749 175.778  1.00  0.00    -0.279 OA
ATOM    730  P    DG A  34     103.431  96.872 175.009  1.00  0.00     0.408 P 
ATOM    731  OP2  DG A  34     102.813  95.579 174.619  1.00  0.00    -0.624 OA
ATOM    732  OP1  DG A  34     104.042  97.737 173.969  1.00  0.00    -0.624 OA
ATOM    733  O5'  DG A  34     104.528  96.586 176.128  1.00  0.00    -0.287 OA
ATOM    734  C5'  DG A  34     105.473  95.528 175.979  1.00  0.00     0.216 C 
ATOM    735  C4'  DG A  34     106.659  95.763 176.884  1.00  0.00     0.180 C 
ATOM    736  O4'  DG A  34     107.357  96.957 176.437  1.00  0.00    -0.353 OA
ATOM    737  C3'  DG A  34     106.322  96.033 178.345  1.00  0.00     0.198 C 
ATOM    738  C1'  DG A  34     107.797  97.703 177.556  1.00  0.00     0.262 C 
ATOM    739  N9   DG A  34     107.139  99.005 177.528  1.00  0.00    -0.293 N 
ATOM    740  C2'  DG A  34     107.497  96.885 178.812  1.00  0.00     0.199 C 
ATOM    741  C8   DG A  34     105.928  99.313 176.959  1.00  0.00     0.214 A 
ATOM    742  C4   DG A  34     107.621 100.173 178.067  1.00  0.00     0.187 A 
ATOM    743  N7   DG A  34     105.603 100.570 177.086  1.00  0.00    -0.234 NA
ATOM    744  C5   DG A  34     106.667 101.127 177.786  1.00  0.00     0.173 A 
ATOM    745  C6   DG A  34     106.886 102.460 178.221  1.00  0.00     0.292 A 
ATOM    746  N1   DG A  34     108.095 102.584 178.896  1.00  0.00    -0.153 N 
ATOM    747  O6   DG A  34     106.163 103.452 178.072  1.00  0.00    -0.265 OA
ATOM    748  H1   DG A  34     108.336 103.498 179.243  1.00  0.00     0.187 HD
ATOM    749  C2   DG A  34     108.978 101.562 179.124  1.00  0.00     0.703 A 
ATOM    750  N2   DG A  34     110.088 101.881 179.797  1.00  0.00    -0.233 N 
ATOM    751  N3   DG A  34     108.789 100.319 178.726  1.00  0.00    -0.044 NA
ATOM    752  H22  DG A  34     110.245 102.828 180.106  1.00  0.00     0.174 HD
ATOM    753  H21  DG A  34     110.768 101.161 179.989  1.00  0.00     0.174 HD
ATOM    754  O2'  DG A  34     108.623  96.080 179.108  1.00  0.00    -0.388 OA
ATOM    755 2'HO  DG A  34     108.293  95.194 179.260  1.00  0.00     0.210 HD
ATOM    756  O3'  DG A  34     106.210  94.816 179.082  1.00  0.00    -0.279 OA
ATOM    757  P    DG A  35     105.263  94.749 180.381  1.00  0.00     0.408 P 
ATOM    758  OP2  DG A  35     103.912  95.242 180.008  1.00  0.00    -0.624 OA
ATOM    759  O5'  DG A  35     105.916  95.789 181.396  1.00  0.00    -0.287 OA
ATOM    760  OP1  DG A  35     105.411  93.388 180.958  1.00  0.00    -0.624 OA
ATOM    761  C5'  DG A  35     107.224  95.578 181.930  1.00  0.00     0.216 C 
ATOM    762  C4'  DG A  35     107.574  96.677 182.906  1.00  0.00     0.180 C 
ATOM    763  C3'  DG A  35     106.475  97.038 183.900  1.00  0.00     0.198 C 
ATOM    764  O4'  DG A  35     107.834  97.893 182.151  1.00  0.00    -0.353 OA
ATOM    765  C2'  DG A  35     106.687  98.532 184.126  1.00  0.00     0.199 C 
ATOM    766  O3'  DG A  35     106.605  96.292 185.109  1.00  0.00    -0.279 OA
ATOM    767  C1'  DG A  35     107.152  98.982 182.742  1.00  0.00     0.262 C 
ATOM    768  O2'  DG A  35     107.728  98.764 185.055  1.00  0.00    -0.388 OA
ATOM    769  N9   DG A  35     106.065  99.380 181.852  1.00  0.00    -0.293 N 
ATOM    770  C8   DG A  35     105.140  98.560 181.255  1.00  0.00     0.214 A 
ATOM    771  C4   DG A  35     105.769 100.658 181.443  1.00  0.00     0.187 A 
ATOM    772  N7   DG A  35     104.287  99.204 180.507  1.00  0.00    -0.234 NA
ATOM    773  C5   DG A  35     104.674 100.534 180.616  1.00  0.00     0.173 A 
ATOM    774  C6   DG A  35     104.125 101.703 180.028  1.00  0.00     0.292 A 
ATOM    775  N1   DG A  35     104.824 102.842 180.409  1.00  0.00    -0.153 N 
ATOM    776  O6   DG A  35     103.158 101.805 179.266  1.00  0.00    -0.265 OA
ATOM    777  C2   DG A  35     105.911 102.857 181.244  1.00  0.00     0.703 A 
ATOM    778  H1   DG A  35     104.501 103.721 180.037  1.00  0.00     0.187 HD
ATOM    779  N2   DG A  35     106.447 104.054 181.491  1.00  0.00    -0.233 N 
ATOM    780  N3   DG A  35     106.435 101.778 181.797  1.00  0.00    -0.044 NA
ATOM    781  H22  DG A  35     106.049 104.886 181.080  1.00  0.00     0.174 HD
ATOM    782  H21  DG A  35     107.250 104.119 182.101  1.00  0.00     0.174 HD
ATOM    783 2'HO  DG A  35     108.045  97.906 185.337  1.00  0.00     0.210 HD
ATOM    784  P    DC A  36     105.318  96.050 186.045  1.00  0.00     0.408 P 
ATOM    785  O5'  DC A  36     105.539  97.040 187.274  1.00  0.00    -0.287 OA
ATOM    786  OP2  DC A  36     104.100  96.482 185.312  1.00  0.00    -0.624 OA
ATOM    787  OP1  DC A  36     105.408  94.659 186.557  1.00  0.00    -0.624 OA
ATOM    788  C5'  DC A  36     104.600  97.096 188.349  1.00  0.00     0.216 C 
ATOM    789  C4'  DC A  36     104.899  98.274 189.247  1.00  0.00     0.180 C 
ATOM    790  C3'  DC A  36     105.315  99.556 188.529  1.00  0.00     0.198 C 
ATOM    791  O4'  DC A  36     106.018  97.922 190.111  1.00  0.00    -0.353 OA
ATOM    792  O3'  DC A  36     104.788 100.709 189.182  1.00  0.00    -0.279 OA
ATOM    793  C2'  DC A  36     106.838  99.514 188.589  1.00  0.00     0.199 C 
ATOM    794  P    DA A  37     103.467 101.422 188.605  1.00  0.00     0.408 P 
ATOM    795  OP2  DA A  37     102.461 100.377 188.286  1.00  0.00    -0.624 OA
ATOM    796  OP1  DA A  37     103.116 102.512 189.550  1.00  0.00    -0.624 OA
ATOM    797  O5'  DA A  37     103.949 102.085 187.239  1.00  0.00    -0.287 OA
ATOM    798  C5'  DA A  37     105.114 102.909 187.192  1.00  0.00     0.216 C 
ATOM    799  C4'  DA A  37     104.898 104.064 186.241  1.00  0.00     0.180 C 
ATOM    800  C3'  DA A  37     103.467 104.581 186.159  1.00  0.00     0.198 C 
ATOM    801  O4'  DA A  37     105.221 103.620 184.894  1.00  0.00    -0.353 OA
ATOM    802  O3'  DA A  37     103.225 105.611 187.115  1.00  0.00    -0.279 OA
ATOM    803  C2'  DA A  37     103.373 105.093 184.727  1.00  0.00     0.199 C 
ATOM    804  P    DT A  38     101.747 105.810 187.717  1.00  0.00     0.408 P 
ATOM    805  O5'  DT A  38     100.787 105.609 186.462  1.00  0.00    -0.287 OA
ATOM    806  OP1  DT A  38     101.638 107.221 188.170  1.00  0.00    -0.624 OA
ATOM    807  OP2  DT A  38     101.481 104.711 188.678  1.00  0.00    -0.624 OA
ATOM    808  C5'  DT A  38     100.559 106.666 185.530  1.00  0.00     0.216 C 
ATOM    809  C4'  DT A  38      99.540 106.238 184.501  1.00  0.00     0.180 C 
ATOM    810  C3'  DT A  38      98.206 105.770 185.064  1.00  0.00     0.198 C 
ATOM    811  O4'  DT A  38     100.050 105.088 183.777  1.00  0.00    -0.353 OA
ATOM    812  C2'  DT A  38      97.688 104.842 183.971  1.00  0.00     0.199 C 
ATOM    813  O3'  DT A  38      97.336 106.871 185.309  1.00  0.00    -0.279 OA
ATOM    814  O2'  DT A  38      97.102 105.575 182.912  1.00  0.00    -0.388 OA
ATOM    815  C1'  DT A  38      98.984 104.207 183.465  1.00  0.00     0.264 C 
ATOM    816 2'HO  DT A  38      96.182 105.715 183.146  1.00  0.00     0.210 HD
ATOM    817  N1   DT A  38      99.277 102.897 184.063  1.00  0.00    -0.280 N 
ATOM    818  C6   DT A  38     100.046 102.784 185.200  1.00  0.00     0.104 A 
ATOM    819  C2   DT A  38      98.757 101.775 183.444  1.00  0.00     0.331 A 
ATOM    820  C5   DT A  38     100.331 101.604 185.758  1.00  0.00     0.092 A 
ATOM    821  C4   DT A  38      99.833 100.398 185.173  1.00  0.00     0.250 A 
ATOM    822  N3   DT A  38      99.073 100.583 184.042  1.00  0.00    -0.275 N 
ATOM    823  O4   DT A  38     100.024  99.257 185.592  1.00  0.00    -0.268 OA
ATOM    824  H3   DT A  38      98.716  99.748 183.601  1.00  0.00     0.173 HD
ATOM    825  O2   DT A  38      98.067 101.830 182.442  1.00  0.00    -0.246 OA
ATOM    826  P    DT A  39      96.017 106.664 186.205  1.00  0.00     0.408 P 
ATOM    827  OP1  DT A  39      95.471 108.014 186.501  1.00  0.00    -0.624 OA
ATOM    828  OP2  DT A  39      96.347 105.746 187.325  1.00  0.00    -0.624 OA
ATOM    829  O5'  DT A  39      94.999 105.925 185.226  1.00  0.00    -0.287 OA
ATOM    830  C5'  DT A  39      94.369 104.703 185.604  1.00  0.00     0.216 C 
ATOM    831  C4'  DT A  39      93.770 104.032 184.391  1.00  0.00     0.180 C 
ATOM    832  C3'  DT A  39      92.655 103.037 184.684  1.00  0.00     0.198 C 
ATOM    833  O4'  DT A  39      94.800 103.246 183.731  1.00  0.00    -0.353 OA
ATOM    834  O3'  DT A  39      91.388 103.684 184.777  1.00  0.00    -0.279 OA
ATOM    835  C2'  DT A  39      92.746 102.089 183.495  1.00  0.00     0.199 C 
ATOM    836  P    DG A  40      90.276 103.121 185.794  1.00  0.00     0.408 P 
ATOM    837  OP1  DG A  40      89.165 104.107 185.821  1.00  0.00    -0.624 OA
ATOM    838  O5'  DG A  40      89.743 101.797 185.087  1.00  0.00    -0.287 OA
ATOM    839  OP2  DG A  40      90.945 102.735 187.063  1.00  0.00    -0.624 OA
ATOM    840  C5'  DG A  40      89.185 101.838 183.775  1.00  0.00     0.216 C 
ATOM    841  C4'  DG A  40      88.706 100.466 183.371  1.00  0.00     0.180 C 
ATOM    842  O4'  DG A  40      89.859  99.636 183.064  1.00  0.00    -0.353 OA
ATOM    843  C3'  DG A  40      87.954  99.697 184.448  1.00  0.00     0.198 C 
ATOM    844  C1'  DG A  40      89.644  98.321 183.545  1.00  0.00     0.262 C 
ATOM    845  C2'  DG A  40      88.204  98.247 184.054  1.00  0.00     0.199 C 
ATOM    846  N9   DG A  40      90.642  98.035 184.570  1.00  0.00    -0.293 N 
ATOM    847  O2'  DG A  40      87.364  97.857 182.983  1.00  0.00    -0.388 OA
ATOM    848 2'HO  DG A  40      86.648  98.492 182.952  1.00  0.00     0.210 HD
ATOM    849  C8   DG A  40      91.394  98.943 185.275  1.00  0.00     0.214 A 
ATOM    850  C4   DG A  40      91.015  96.793 185.020  1.00  0.00     0.187 A 
ATOM    851  N7   DG A  40      92.211  98.385 186.127  1.00  0.00    -0.234 NA
ATOM    852  C5   DG A  40      91.981  97.023 185.978  1.00  0.00     0.173 A 
ATOM    853  C6   DG A  40      92.569  95.911 186.636  1.00  0.00     0.292 A 
ATOM    854  N1   DG A  40      92.043  94.709 186.176  1.00  0.00    -0.153 N 
ATOM    855  O6   DG A  40      93.441  95.905 187.512  1.00  0.00    -0.265 OA
ATOM    856  C2   DG A  40      91.075  94.590 185.212  1.00  0.00     0.703 A 
ATOM    857  H1   DG A  40      92.402  93.861 186.587  1.00  0.00     0.187 HD
ATOM    858  N3   DG A  40      90.518  95.614 184.592  1.00  0.00    -0.044 NA
ATOM    859  N2   DG A  40      90.696  93.347 184.905  1.00  0.00    -0.233 N 
ATOM    860  H21  DG A  40      89.986  93.207 184.202  1.00  0.00     0.174 HD
ATOM    861  H22  DG A  40      91.116  92.554 185.372  1.00  0.00     0.174 HD
ATOM    862  O3'  DG A  40      86.569 100.028 184.459  1.00  0.00    -0.279 OA
ATOM    863  P    DA A  41      85.694  99.764 185.782  1.00  0.00     0.408 P 
ATOM    864  OP2  DA A  41      86.433 100.305 186.952  1.00  0.00    -0.624 OA
ATOM    865  OP1  DA A  41      84.316 100.241 185.502  1.00  0.00    -0.624 OA
ATOM    866  O5'  DA A  41      85.655  98.177 185.909  1.00  0.00    -0.287 OA
ATOM    867  C5'  DA A  41      85.029  97.374 184.909  1.00  0.00     0.216 C 
ATOM    868  C4'  DA A  41      84.908  95.947 185.389  1.00  0.00     0.180 C 
ATOM    869  C3'  DA A  41      84.460  95.788 186.835  1.00  0.00     0.198 C 
ATOM    870  O4'  DA A  41      86.217  95.320 185.333  1.00  0.00    -0.353 OA
ATOM    871  O3'  DA A  41      83.038  95.785 186.933  1.00  0.00    -0.279 OA
ATOM    872  C2'  DA A  41      85.081  94.454 187.237  1.00  0.00     0.199 C 
ATOM    873  P    DA A  42      82.335  95.909 188.372  1.00  0.00     0.408 P 
ATOM    874  O5'  DA A  42      82.525  94.464 189.018  1.00  0.00    -0.287 OA
ATOM    875  OP1  DA A  42      80.883  96.118 188.138  1.00  0.00    -0.624 OA
ATOM    876  OP2  DA A  42      83.095  96.894 189.185  1.00  0.00    -0.624 OA
ATOM    877  C5'  DA A  42      82.982  94.310 190.360  1.00  0.00     0.216 C 
ATOM    878  C4'  DA A  42      83.489  92.905 190.579  1.00  0.00     0.180 C 
ATOM    879  C3'  DA A  42      83.789  92.546 192.029  1.00  0.00     0.198 C 
ATOM    880  O4'  DA A  42      84.757  92.753 189.878  1.00  0.00    -0.353 OA
ATOM    881  O3'  DA A  42      82.642  92.008 192.683  1.00  0.00    -0.279 OA
ATOM    882  C2'  DA A  42      84.917  91.530 191.892  1.00  0.00     0.199 C 
ATOM    883  P    DG A  43      82.327  92.412 194.209  1.00  0.00     0.408 P 
ATOM    884  O5'  DG A  43      83.284  91.464 195.060  1.00  0.00    -0.287 OA
ATOM    885  OP1  DG A  43      80.922  92.018 194.486  1.00  0.00    -0.624 OA
ATOM    886  OP2  DG A  43      82.749  93.821 194.417  1.00  0.00    -0.624 OA
ATOM    887  C5'  DG A  43      83.263  90.049 194.877  1.00  0.00     0.216 C 
ATOM    888  C4'  DG A  43      84.441  89.412 195.577  1.00  0.00     0.180 C 
ATOM    889  C3'  DG A  43      84.620  89.788 197.042  1.00  0.00     0.198 C 
ATOM    890  O4'  DG A  43      85.668  89.859 194.941  1.00  0.00    -0.353 OA
ATOM    891  O3'  DG A  43      83.810  88.981 197.893  1.00  0.00    -0.279 OA
ATOM    892  C2'  DG A  43      86.109  89.554 197.258  1.00  0.00     0.199 C 
ATOM    893  P    DA A  44      83.257  89.583 199.280  1.00  0.00     0.408 P 
ATOM    894  OP1  DA A  44      82.304  88.590 199.838  1.00  0.00    -0.624 OA
ATOM    895  OP2  DA A  44      82.808  90.979 199.047  1.00  0.00    -0.624 OA
ATOM    896  O5'  DA A  44      84.541  89.622 200.224  1.00  0.00    -0.287 OA
ATOM    897  C5'  DA A  44      85.156  88.419 200.681  1.00  0.00     0.216 C 
ATOM    898  C4'  DA A  44      86.442  88.734 201.409  1.00  0.00     0.180 C 
ATOM    899  C3'  DA A  44      86.309  89.687 202.590  1.00  0.00     0.198 C 
ATOM    900  O4'  DA A  44      87.348  89.405 200.490  1.00  0.00    -0.353 OA
ATOM    901  O3'  DA A  44      85.994  88.987 203.791  1.00  0.00    -0.279 OA
ATOM    902  C2'  DA A  44      87.682  90.345 202.647  1.00  0.00     0.199 C 
ATOM    903  P    DG A  45      85.205  89.742 204.973  1.00  0.00     0.408 P 
ATOM    904  OP1  DG A  45      85.370  88.924 206.200  1.00  0.00    -0.624 OA
ATOM    905  OP2  DG A  45      83.840  90.069 204.486  1.00  0.00    -0.624 OA
ATOM    906  O5'  DG A  45      86.008  91.106 205.165  1.00  0.00    -0.287 OA
ATOM    907  C5'  DG A  45      87.083  91.198 206.099  1.00  0.00     0.216 C 
ATOM    908  C4'  DG A  45      87.857  92.475 205.876  1.00  0.00     0.180 C 
ATOM    909  O4'  DG A  45      87.418  93.464 206.847  1.00  0.00    -0.353 OA
ATOM    910  C3'  DG A  45      89.360  92.364 206.090  1.00  0.00     0.198 C 
ATOM    911  C1'  DG A  45      88.532  94.203 207.316  1.00  0.00     0.262 C 
ATOM    912  N9   DG A  45      88.677  93.955 208.748  1.00  0.00    -0.293 N 
ATOM    913  C2'  DG A  45      89.749  93.782 206.490  1.00  0.00     0.199 C 
ATOM    914  C8   DG A  45      88.364  94.817 209.771  1.00  0.00     0.214 A 
ATOM    915  C4   DG A  45      89.156  92.811 209.340  1.00  0.00     0.187 A 
ATOM    916  N7   DG A  45      88.603  94.321 210.953  1.00  0.00    -0.234 NA
ATOM    917  C5   DG A  45      89.105  93.051 210.697  1.00  0.00     0.173 A 
ATOM    918  C6   DG A  45      89.546  92.038 211.588  1.00  0.00     0.292 A 
ATOM    919  O6   DG A  45      89.588  92.058 212.822  1.00  0.00    -0.265 OA
ATOM    920  N1   DG A  45      89.976  90.908 210.903  1.00  0.00    -0.153 N 
ATOM    921  H1   DG A  45      90.308  90.132 211.456  1.00  0.00     0.187 HD
ATOM    922  C2   DG A  45      89.985  90.770 209.539  1.00  0.00     0.703 A 
ATOM    923  N2   DG A  45      90.438  89.607 209.066  1.00  0.00    -0.233 N 
ATOM    924  N3   DG A  45      89.580  91.703 208.698  1.00  0.00    -0.044 NA
ATOM    925  H22  DG A  45      90.754  88.883 209.694  1.00  0.00     0.174 HD
ATOM    926  H21  DG A  45      90.462  89.465 208.065  1.00  0.00     0.174 HD
ATOM    927  O2'  DG A  45      89.845  94.626 205.359  1.00  0.00    -0.388 OA
ATOM    928 2'HO  DG A  45      90.730  94.519 205.008  1.00  0.00     0.210 HD
ATOM    929  O3'  DG A  45      90.033  91.927 204.913  1.00  0.00    -0.279 OA
ATOM    930  P    DG A  46      91.438  91.156 205.041  1.00  0.00     0.408 P 
ATOM    931  OP2  DG A  46      91.179  89.801 205.593  1.00  0.00    -0.624 OA
ATOM    932  O5'  DG A  46      92.234  91.991 206.142  1.00  0.00    -0.287 OA
ATOM    933  OP1  DG A  46      92.146  91.298 203.742  1.00  0.00    -0.624 OA
ATOM    934  C5'  DG A  46      93.660  92.063 206.128  1.00  0.00     0.216 C 
ATOM    935  C4'  DG A  46      94.109  93.499 205.974  1.00  0.00     0.180 C 
ATOM    936  O4'  DG A  46      93.086  94.378 206.497  1.00  0.00    -0.353 OA
ATOM    937  C3'  DG A  46      95.354  93.879 206.762  1.00  0.00     0.198 C 
ATOM    938  C1'  DG A  46      93.683  95.580 206.937  1.00  0.00     0.262 C 
ATOM    939  N9   DG A  46      93.111  95.927 208.234  1.00  0.00    -0.293 N 
ATOM    940  C2'  DG A  46      95.204  95.388 206.969  1.00  0.00     0.199 C 
ATOM    941  C4   DG A  46      92.813  95.063 209.261  1.00  0.00     0.187 A 
ATOM    942  C8   DG A  46      92.764  97.181 208.673  1.00  0.00     0.214 A 
ATOM    943  C5   DG A  46      92.301  95.853 210.268  1.00  0.00     0.173 A 
ATOM    944  N3   DG A  46      92.996  93.727 209.251  1.00  0.00    -0.044 NA
ATOM    945  N7   DG A  46      92.276  97.188 209.884  1.00  0.00    -0.234 NA
ATOM    946  C6   DG A  46      91.897  95.237 211.482  1.00  0.00     0.292 A 
ATOM    947  N1   DG A  46      92.097  93.863 211.448  1.00  0.00    -0.153 N 
ATOM    948  O6   DG A  46      91.419  95.763 212.493  1.00  0.00    -0.265 OA
ATOM    949  H1   DG A  46      91.839  93.343 212.272  1.00  0.00     0.187 HD
ATOM    950  C2   DG A  46      92.616  93.169 210.385  1.00  0.00     0.703 A 
ATOM    951  N2   DG A  46      92.729  91.849 210.542  1.00  0.00    -0.233 N 
ATOM    952  H22  DG A  46      92.457  91.410 211.408  1.00  0.00     0.174 HD
ATOM    953  H21  DG A  46      93.107  91.302 209.781  1.00  0.00     0.174 HD
ATOM    954  O2'  DG A  46      95.766  96.109 205.888  1.00  0.00    -0.388 OA
ATOM    955 2'HO  DG A  46      95.250  95.903 205.106  1.00  0.00     0.210 HD
ATOM    956  O3'  DG A  46      96.544  93.565 206.040  1.00  0.00    -0.279 OA
ATOM    957  P    DT A  47      97.183  92.093 206.144  1.00  0.00     0.408 P 
ATOM    958  OP2  DT A  47      96.511  91.216 205.152  1.00  0.00    -0.624 OA
ATOM    959  O5'  DT A  47      96.777  91.590 207.602  1.00  0.00    -0.287 OA
ATOM    960  OP1  DT A  47      98.661  92.245 206.105  1.00  0.00    -0.624 OA
ATOM    961  C5'  DT A  47      97.463  92.058 208.762  1.00  0.00     0.216 C 
ATOM    962  C4'  DT A  47      96.933  91.365 209.995  1.00  0.00     0.180 C 
ATOM    963  O4'  DT A  47      95.483  91.277 209.902  1.00  0.00    -0.353 OA
ATOM    964  C3'  DT A  47      97.404  89.927 210.182  1.00  0.00     0.198 C 
ATOM    965  C1'  DT A  47      95.051  89.993 210.315  1.00  0.00     0.264 C 
ATOM    966  N1   DT A  47      94.508  89.288 209.145  1.00  0.00    -0.280 N 
ATOM    967  C2'  DT A  47      96.252  89.298 210.955  1.00  0.00     0.199 C 
ATOM    968  C2   DT A  47      93.328  88.585 209.301  1.00  0.00     0.331 A 
ATOM    969  C6   DT A  47      95.155  89.323 207.929  1.00  0.00     0.104 A 
ATOM    970  O2   DT A  47      92.718  88.536 210.356  1.00  0.00    -0.246 OA
ATOM    971  N3   DT A  47      92.883  87.941 208.176  1.00  0.00    -0.275 N 
ATOM    972  H3   DT A  47      92.024  87.418 208.256  1.00  0.00     0.173 HD
ATOM    973  C4   DT A  47      93.480  87.929 206.936  1.00  0.00     0.250 A 
ATOM    974  O4   DT A  47      92.972  87.275 206.027  1.00  0.00    -0.268 OA
ATOM    975  C5   DT A  47      94.689  88.684 206.852  1.00  0.00     0.092 A 
ATOM    976  O2'  DT A  47      96.297  89.650 212.324  1.00  0.00    -0.388 OA
ATOM    977 2'HO  DT A  47      97.193  89.932 212.510  1.00  0.00     0.210 HD
ATOM    978  O3'  DT A  47      98.637  89.873 210.895  1.00  0.00    -0.279 OA
ATOM    979  P    DC A  48      99.548  88.550 210.820  1.00  0.00     0.408 P 
ATOM    980  O5'  DC A  48      98.919  87.588 211.923  1.00  0.00    -0.287 OA
ATOM    981  OP1  DC A  48     100.915  88.927 211.264  1.00  0.00    -0.624 OA
ATOM    982  OP2  DC A  48      99.358  87.915 209.491  1.00  0.00    -0.624 OA
ATOM    983  C5'  DC A  48      98.870  87.977 213.295  1.00  0.00     0.216 C 
ATOM    984  C4'  DC A  48      98.058  86.984 214.092  1.00  0.00     0.180 C 
ATOM    985  O4'  DC A  48      96.687  86.996 213.612  1.00  0.00    -0.353 OA
ATOM    986  C3'  DC A  48      98.489  85.530 213.958  1.00  0.00     0.198 C 
ATOM    987  C1'  DC A  48      96.160  85.679 213.632  1.00  0.00     0.264 C 
ATOM    988  C2'  DC A  48      97.206  84.782 214.294  1.00  0.00     0.199 C 
ATOM    989  N1   DC A  48      95.833  85.289 212.250  1.00  0.00    -0.278 N 
ATOM    990  O2'  DC A  48      96.973  84.770 215.689  1.00  0.00    -0.388 OA
ATOM    991 2'HO  DC A  48      97.792  85.042 216.106  1.00  0.00     0.210 HD
ATOM    992  C2   DC A  48      94.805  84.366 212.034  1.00  0.00     0.352 A 
ATOM    993  C6   DC A  48      96.517  85.819 211.191  1.00  0.00     0.102 A 
ATOM    994  O2   DC A  48      94.205  83.895 213.009  1.00  0.00    -0.244 OA
ATOM    995  N3   DC A  48      94.492  84.010 210.768  1.00  0.00    -0.177 NA
ATOM    996  C4   DC A  48      95.162  84.537 209.742  1.00  0.00     0.128 A 
ATOM    997  C5   DC A  48      96.216  85.477 209.932  1.00  0.00     0.067 A 
ATOM    998  N4   DC A  48      94.816  84.158 208.512  1.00  0.00    -0.384 N 
ATOM    999  H41  DC A  48      95.298  84.534 207.709  1.00  0.00     0.157 HD
ATOM   1000  H42  DC A  48      94.067  83.491 208.385  1.00  0.00     0.157 HD
ATOM   1001  O3'  DC A  48      99.555  85.214 214.847  1.00  0.00    -0.279 OA
ATOM   1002  P    DA A  49     100.516  83.964 214.529  1.00  0.00     0.408 P 
ATOM   1003  O5'  DA A  49      99.542  82.704 214.594  1.00  0.00    -0.287 OA
ATOM   1004  OP1  DA A  49     101.488  83.858 215.647  1.00  0.00    -0.624 OA
ATOM   1005  OP2  DA A  49     101.013  84.098 213.136  1.00  0.00    -0.624 OA
ATOM   1006  C5'  DA A  49      98.821  82.396 215.786  1.00  0.00     0.216 C 
ATOM   1007  C4'  DA A  49      97.992  81.149 215.587  1.00  0.00     0.180 C 
ATOM   1008  O4'  DA A  49      96.802  81.476 214.825  1.00  0.00    -0.353 OA
ATOM   1009  C3'  DA A  49      98.645  80.047 214.768  1.00  0.00     0.198 C 
ATOM   1010  C1'  DA A  49      96.410  80.350 214.058  1.00  0.00     0.262 C 
ATOM   1011  C2'  DA A  49      97.442  79.243 214.287  1.00  0.00     0.199 C 
ATOM   1012  N9   DA A  49      96.297  80.762 212.658  1.00  0.00    -0.294 N 
ATOM   1013  O2'  DA A  49      96.959  78.382 215.302  1.00  0.00    -0.388 OA
ATOM   1014 2'HO  DA A  49      97.481  77.579 215.258  1.00  0.00     0.210 HD
ATOM   1015  C4   DA A  49      95.460  80.212 211.718  1.00  0.00     0.167 A 
ATOM   1016  C8   DA A  49      96.989  81.755 212.010  1.00  0.00     0.214 A 
ATOM   1017  N3   DA A  49      94.590  79.203 211.891  1.00  0.00    -0.222 NA
ATOM   1018  C5   DA A  49      95.695  80.912 210.548  1.00  0.00     0.149 A 
ATOM   1019  C2   DA A  49      93.947  78.937 210.757  1.00  0.00     0.237 A 
ATOM   1020  N1   DA A  49      94.067  79.521 209.557  1.00  0.00    -0.222 NA
ATOM   1021  C6   DA A  49      94.950  80.532 209.417  1.00  0.00     0.155 A 
ATOM   1022  N6   DA A  49      95.068  81.114 208.223  1.00  0.00    -0.382 N 
ATOM   1023  H62  DA A  49      94.503  80.800 207.446  1.00  0.00     0.157 HD
ATOM   1024  H61  DA A  49      95.723  81.871 208.096  1.00  0.00     0.157 HD
ATOM   1025  N7   DA A  49      96.664  81.886 210.745  1.00  0.00    -0.236 NA
ATOM   1026  O3'  DA A  49      99.547  79.273 215.555  1.00  0.00    -0.279 OA
ATOM   1027  P    DG A  50     100.896  78.696 214.894  1.00  0.00     0.408 P 
ATOM   1028  O5'  DG A  50     100.497  77.227 214.423  1.00  0.00    -0.287 OA
ATOM   1029  OP1  DG A  50     101.899  78.570 215.983  1.00  0.00    -0.624 OA
ATOM   1030  OP2  DG A  50     101.225  79.493 213.685  1.00  0.00    -0.624 OA
ATOM   1031  C5'  DG A  50     100.231  76.197 215.373  1.00  0.00     0.216 C 
ATOM   1032  C4'  DG A  50      99.282  75.178 214.786  1.00  0.00     0.180 C 
ATOM   1033  O4'  DG A  50      98.085  75.860 214.313  1.00  0.00    -0.353 OA
ATOM   1034  C3'  DG A  50      99.793  74.428 213.564  1.00  0.00     0.198 C 
ATOM   1035  C1'  DG A  50      97.660  75.283 213.089  1.00  0.00     0.262 C 
ATOM   1036  N9   DG A  50      97.819  76.275 212.031  1.00  0.00    -0.293 N 
ATOM   1037  C2'  DG A  50      98.499  74.026 212.872  1.00  0.00     0.199 C 
ATOM   1038  C4   DG A  50      96.998  76.455 210.944  1.00  0.00     0.187 A 
ATOM   1039  C8   DG A  50      98.817  77.212 211.920  1.00  0.00     0.214 A 
ATOM   1040  N3   DG A  50      95.888  75.740 210.660  1.00  0.00    -0.044 NA
ATOM   1041  C5   DG A  50      97.554  77.498 210.233  1.00  0.00     0.173 A 
ATOM   1042  C2   DG A  50      95.312  76.148 209.544  1.00  0.00     0.703 A 
ATOM   1043  N2   DG A  50      94.200  75.545 209.115  1.00  0.00    -0.233 N 
ATOM   1044  N1   DG A  50      95.783  77.175 208.766  1.00  0.00    -0.153 N 
ATOM   1045  H22  DG A  50      93.742  75.853 208.269  1.00  0.00     0.174 HD
ATOM   1046  H21  DG A  50      93.815  74.782 209.653  1.00  0.00     0.174 HD
ATOM   1047  H1   DG A  50      95.270  77.415 207.933  1.00  0.00     0.187 HD
ATOM   1048  C6   DG A  50      96.923  77.923 209.037  1.00  0.00     0.292 A 
ATOM   1049  O6   DG A  50      97.261  78.827 208.265  1.00  0.00    -0.265 OA
ATOM   1050  N7   DG A  50      98.701  77.965 210.861  1.00  0.00    -0.234 NA
ATOM   1051  O2'  DG A  50      97.877  72.941 213.537  1.00  0.00    -0.388 OA
ATOM   1052 2'HO  DG A  50      98.565  72.478 214.014  1.00  0.00     0.210 HD
ATOM   1053  O3'  DG A  50     100.596  73.306 213.924  1.00  0.00    -0.279 OA
ATOM   1054  P    DC A  51     101.743  72.791 212.920  1.00  0.00     0.408 P 
ATOM   1055  OP1  DC A  51     102.342  71.572 213.519  1.00  0.00    -0.624 OA
ATOM   1056  OP2  DC A  51     102.614  73.942 212.573  1.00  0.00    -0.624 OA
ATOM   1057  O5'  DC A  51     100.942  72.361 211.610  1.00  0.00    -0.287 OA
ATOM   1058  C5'  DC A  51     100.012  71.281 211.644  1.00  0.00     0.216 C 
ATOM   1059  C4'  DC A  51      99.129  71.308 210.417  1.00  0.00     0.180 C 
ATOM   1060  C3'  DC A  51      99.836  71.115 209.086  1.00  0.00     0.198 C 
ATOM   1061  O4'  DC A  51      98.524  72.617 210.273  1.00  0.00    -0.353 OA
ATOM   1062  C2'  DC A  51      98.822  71.685 208.099  1.00  0.00     0.199 C 
ATOM   1063  O3'  DC A  51     100.132  69.743 208.835  1.00  0.00    -0.279 OA
ATOM   1064  O2'  DC A  51      97.793  70.753 207.828  1.00  0.00    -0.388 OA
ATOM   1065  C1'  DC A  51      98.230  72.845 208.904  1.00  0.00     0.264 C 
ATOM   1066 2'HO  DC A  51      98.122  69.894 208.095  1.00  0.00     0.210 HD
ATOM   1067  N1   DC A  51      98.771  74.158 208.516  1.00  0.00    -0.278 N 
ATOM   1068  C6   DC A  51      99.607  74.853 209.347  1.00  0.00     0.102 A 
ATOM   1069  C2   DC A  51      98.416  74.687 207.273  1.00  0.00     0.352 A 
ATOM   1070  C5   DC A  51     100.100  76.046 208.990  1.00  0.00     0.067 A 
ATOM   1071  C4   DC A  51      99.724  76.556 207.714  1.00  0.00     0.128 A 
ATOM   1072  N4   DC A  51     100.182  77.735 207.301  1.00  0.00    -0.384 N 
ATOM   1073  N3   DC A  51      98.911  75.885 206.897  1.00  0.00    -0.177 NA
ATOM   1074  H42  DC A  51      99.902  78.095 206.399  1.00  0.00     0.157 HD
ATOM   1075  H41  DC A  51     100.798  78.274 207.891  1.00  0.00     0.157 HD
ATOM   1076  O2   DC A  51      97.651  74.041 206.542  1.00  0.00    -0.244 OA
ATOM   1077  P    DC A  52     101.310  69.355 207.809  1.00  0.00     0.408 P 
ATOM   1078  OP1  DC A  52     101.514  67.887 207.904  1.00  0.00    -0.624 OA
ATOM   1079  O5'  DC A  52     100.695  69.682 206.375  1.00  0.00    -0.287 OA
ATOM   1080  OP2  DC A  52     102.456  70.271 208.037  1.00  0.00    -0.624 OA
ATOM   1081  C5'  DC A  52      99.613  68.916 205.848  1.00  0.00     0.216 C 
ATOM   1082  C4'  DC A  52      99.481  69.151 204.362  1.00  0.00     0.180 C 
ATOM   1083  O4'  DC A  52      98.764  70.400 204.141  1.00  0.00    -0.353 OA
ATOM   1084  C3'  DC A  52     100.790  69.329 203.604  1.00  0.00     0.198 C 
ATOM   1085  C1'  DC A  52      99.365  71.114 203.073  1.00  0.00     0.264 C 
ATOM   1086  N1   DC A  52      99.995  72.328 203.620  1.00  0.00    -0.278 N 
ATOM   1087  C2'  DC A  52     100.352  70.159 202.406  1.00  0.00     0.199 C 
ATOM   1088  C2   DC A  52     100.178  73.432 202.784  1.00  0.00     0.352 A 
ATOM   1089  C6   DC A  52     100.396  72.378 204.926  1.00  0.00     0.102 A 
ATOM   1090  N3   DC A  52     100.749  74.552 203.283  1.00  0.00    -0.177 NA
ATOM   1091  O2   DC A  52      99.813  73.360 201.602  1.00  0.00    -0.244 OA
ATOM   1092  C4   DC A  52     101.129  74.593 204.560  1.00  0.00     0.128 A 
ATOM   1093  N4   DC A  52     101.677  75.721 205.010  1.00  0.00    -0.384 N 
ATOM   1094  C5   DC A  52     100.960  73.480 205.435  1.00  0.00     0.067 A 
ATOM   1095  H42  DC A  52     101.784  76.508 204.385  1.00  0.00     0.157 HD
ATOM   1096  H41  DC A  52     101.977  75.796 205.970  1.00  0.00     0.157 HD
ATOM   1097  O2'  DC A  52      99.655  69.369 201.461  1.00  0.00    -0.388 OA
ATOM   1098 2'HO  DC A  52      99.910  68.459 201.620  1.00  0.00     0.210 HD
ATOM   1099  O3'  DC A  52     101.363  68.082 203.224  1.00  0.00    -0.279 OA
ATOM   1100  P    DC A  53     102.943  67.985 202.936  1.00  0.00     0.408 P 
ATOM   1101  OP2  DC A  53     103.665  68.663 204.043  1.00  0.00    -0.624 OA
ATOM   1102  OP1  DC A  53     103.250  66.567 202.618  1.00  0.00    -0.624 OA
ATOM   1103  O5'  DC A  53     103.146  68.848 201.611  1.00  0.00    -0.287 OA
ATOM   1104  C5'  DC A  53     102.552  68.446 200.378  1.00  0.00     0.216 C 
ATOM   1105  C4'  DC A  53     102.752  69.512 199.325  1.00  0.00     0.180 C 
ATOM   1106  O4'  DC A  53     102.080  70.734 199.735  1.00  0.00    -0.353 OA
ATOM   1107  C3'  DC A  53     104.186  69.962 199.097  1.00  0.00     0.198 C 
ATOM   1108  C1'  DC A  53     102.794  71.855 199.237  1.00  0.00     0.264 C 
ATOM   1109  N1   DC A  53     103.186  72.705 200.373  1.00  0.00    -0.278 N 
ATOM   1110  C2'  DC A  53     103.986  71.322 198.442  1.00  0.00     0.199 C 
ATOM   1111  C6   DC A  53     103.246  72.200 201.643  1.00  0.00     0.102 A 
ATOM   1112  C2   DC A  53     103.504  74.044 200.134  1.00  0.00     0.352 A 
ATOM   1113  C5   DC A  53     103.601  72.971 202.678  1.00  0.00     0.067 A 
ATOM   1114  C4   DC A  53     103.920  74.332 202.402  1.00  0.00     0.128 A 
ATOM   1115  N3   DC A  53     103.868  74.834 201.168  1.00  0.00    -0.177 NA
ATOM   1116  N4   DC A  53     104.282  75.150 203.389  1.00  0.00    -0.384 N 
ATOM   1117  H41  DC A  53     104.335  74.812 204.339  1.00  0.00     0.157 HD
ATOM   1118  H42  DC A  53     104.505  76.114 203.182  1.00  0.00     0.157 HD
ATOM   1119  O2   DC A  53     103.442  74.478 198.975  1.00  0.00    -0.244 OA
ATOM   1120  O2'  DC A  53     103.602  71.187 197.086  1.00  0.00    -0.388 OA
ATOM   1121 2'HO  DC A  53     103.885  70.315 196.804  1.00  0.00     0.210 HD
ATOM   1122  O3'  DC A  53     104.908  69.057 198.268  1.00  0.00    -0.279 OA
ATOM   1123  P    DC A  54     106.515  69.018 198.340  1.00  0.00     0.408 P 
ATOM   1124  OP2  DC A  54     106.921  68.989 199.769  1.00  0.00    -0.624 OA
ATOM   1125  O5'  DC A  54     106.964  70.419 197.727  1.00  0.00    -0.287 OA
ATOM   1126  OP1  DC A  54     106.975  67.942 197.425  1.00  0.00    -0.624 OA
ATOM   1127  C5'  DC A  54     106.723  70.730 196.357  1.00  0.00     0.216 C 
ATOM   1128  C4'  DC A  54     107.194  72.134 196.047  1.00  0.00     0.180 C 
ATOM   1129  O4'  DC A  54     106.399  73.084 196.804  1.00  0.00    -0.353 OA
ATOM   1130  C3'  DC A  54     108.626  72.454 196.449  1.00  0.00     0.198 C 
ATOM   1131  C1'  DC A  54     107.199  74.200 197.154  1.00  0.00     0.264 C 
ATOM   1132  N1   DC A  54     107.191  74.340 198.620  1.00  0.00    -0.278 N 
ATOM   1133  C2'  DC A  54     108.596  73.973 196.572  1.00  0.00     0.199 C 
ATOM   1134  C6   DC A  54     106.933  73.267 199.426  1.00  0.00     0.102 A 
ATOM   1135  C2   DC A  54     107.453  75.593 199.178  1.00  0.00     0.352 A 
ATOM   1136  C5   DC A  54     106.920  73.390 200.759  1.00  0.00     0.067 A 
ATOM   1137  C4   DC A  54     107.191  74.681 201.300  1.00  0.00     0.128 A 
ATOM   1138  N4   DC A  54     107.193  74.869 202.618  1.00  0.00    -0.384 N 
ATOM   1139  N3   DC A  54     107.449  75.732 200.522  1.00  0.00    -0.177 NA
ATOM   1140  H41  DC A  54     107.003  74.102 203.246  1.00  0.00     0.157 HD
ATOM   1141  H42  DC A  54     107.383  75.793 202.986  1.00  0.00     0.157 HD
ATOM   1142  O2   DC A  54     107.683  76.551 198.426  1.00  0.00    -0.244 OA
ATOM   1143  O2'  DC A  54     108.659  74.590 195.300  1.00  0.00    -0.388 OA
ATOM   1144 2'HO  DC A  54     108.652  73.887 194.649  1.00  0.00     0.210 HD
ATOM   1145  O3'  DC A  54     109.562  72.005 195.473  1.00  0.00    -0.279 OA
ATOM   1146  P    DC A  55     111.098  71.772 195.886  1.00  0.00     0.408 P 
ATOM   1147  OP2  DC A  55     111.135  71.033 197.173  1.00  0.00    -0.624 OA
ATOM   1148  OP1  DC A  55     111.799  71.215 194.700  1.00  0.00    -0.624 OA
ATOM   1149  O5'  DC A  55     111.659  73.242 196.144  1.00  0.00    -0.287 OA
ATOM   1150  C5'  DC A  55     111.667  74.220 195.105  1.00  0.00     0.216 C 
ATOM   1151  C4'  DC A  55     112.273  75.509 195.605  1.00  0.00     0.180 C 
ATOM   1152  C3'  DC A  55     113.513  75.359 196.473  1.00  0.00     0.182 C 
ATOM   1153  O4'  DC A  55     111.315  76.178 196.467  1.00  0.00    -0.353 OA
ATOM   1154  C2'  DC A  55     113.502  76.645 197.291  1.00  0.00     0.198 C 
ATOM   1155  O3'  DC A  55     114.706  75.215 195.694  1.00  0.00    -0.390 OA
ATOM   1156  C1'  DC A  55     112.002  76.862 197.499  1.00  0.00     0.264 C 
ATOM   1157  O2'  DC A  55     114.018  77.732 196.543  1.00  0.00    -0.388 OA
ATOM   1158  N1   DC A  55     111.506  76.366 198.793  1.00  0.00    -0.278 N 
ATOM   1159  C2   DC A  55     111.384  77.264 199.858  1.00  0.00     0.352 A 
ATOM   1160  C6   DC A  55     111.169  75.051 198.958  1.00  0.00     0.102 A 
ATOM   1161  N3   DC A  55     110.927  76.818 201.048  1.00  0.00    -0.177 NA
ATOM   1162  O2   DC A  55     111.701  78.449 199.682  1.00  0.00    -0.244 OA
ATOM   1163  C4   DC A  55     110.600  75.535 201.199  1.00  0.00     0.128 A 
ATOM   1164  N4   DC A  55     110.153  75.144 202.391  1.00  0.00    -0.384 N 
ATOM   1165  C5   DC A  55     110.716  74.596 200.132  1.00  0.00     0.067 A 
ATOM   1166  H41  DC A  55     109.895  74.182 202.550  1.00  0.00     0.157 HD
ATOM   1167  H42  DC A  55     110.072  75.823 203.136  1.00  0.00     0.157 HD
ATOM   1168 2'HO  DC A  55     114.662  77.370 195.933  1.00  0.00     0.210 HD
ATOM   1169 3'HO  DC A  55     114.544  74.515 195.057  1.00  0.00     0.210 HD
ATOM   1170  O2'  DA A  44      88.630  89.499 203.270  1.00  0.00    -0.388 OA
ATOM   1171  C1'  DA A  44      88.023  90.452 201.161  1.00  0.00     0.262 C 
ATOM   1172 2'HO  DA A  44      88.135  88.835 203.751  1.00  0.00     0.210 HD
ATOM   1173  N9   DA A  44      87.622  91.721 200.553  1.00  0.00    -0.294 N 
ATOM   1174  C4   DA A  44      88.333  92.895 200.578  1.00  0.00     0.167 A 
ATOM   1175  C8   DA A  44      86.476  91.991 199.845  1.00  0.00     0.214 A 
ATOM   1176  N3   DA A  44      89.524  93.115 201.163  1.00  0.00    -0.222 NA
ATOM   1177  C5   DA A  44      87.572  93.811 199.874  1.00  0.00     0.149 A 
ATOM   1178  C2   DA A  44      89.909  94.377 200.981  1.00  0.00     0.237 A 
ATOM   1179  N1   DA A  44      89.287  95.367 200.328  1.00  0.00    -0.222 NA
ATOM   1180  C6   DA A  44      88.093  95.110 199.750  1.00  0.00     0.155 A 
ATOM   1181  N6   DA A  44      87.477  96.095 199.097  1.00  0.00    -0.382 N 
ATOM   1182  H61  DA A  44      86.584  95.926 198.656  1.00  0.00     0.157 HD
ATOM   1183  H62  DA A  44      87.905  97.008 199.036  1.00  0.00     0.157 HD
ATOM   1184  N7   DA A  44      86.400  93.226 199.416  1.00  0.00    -0.236 NA
ATOM   1185  O2'  DG A  43      86.392  88.174 197.413  1.00  0.00    -0.388 OA
ATOM   1186  C1'  DG A  43      86.681  90.023 195.921  1.00  0.00     0.262 C 
ATOM   1187 2'HO  DG A  43      85.665  87.800 197.912  1.00  0.00     0.210 HD
ATOM   1188  N9   DG A  43      87.099  91.423 195.921  1.00  0.00    -0.293 N 
ATOM   1189  C4   DG A  43      88.170  91.956 196.597  1.00  0.00     0.187 A 
ATOM   1190  C8   DG A  43      86.507  92.465 195.252  1.00  0.00     0.214 A 
ATOM   1191  N3   DG A  43      89.028  91.277 197.388  1.00  0.00    -0.044 NA
ATOM   1192  C5   DG A  43      88.164  93.300 196.290  1.00  0.00     0.173 A 
ATOM   1193  C2   DG A  43      89.956  92.066 197.899  1.00  0.00     0.703 A 
ATOM   1194  N1   DG A  43      90.039  93.412 197.657  1.00  0.00    -0.153 N 
ATOM   1195  N2   DG A  43      90.889  91.557 198.709  1.00  0.00    -0.233 N 
ATOM   1196  H1   DG A  43      90.789  93.921 198.100  1.00  0.00     0.187 HD
ATOM   1197  C6   DG A  43      89.169  94.133 196.847  1.00  0.00     0.292 A 
ATOM   1198  O6   DG A  43      89.337  95.348 196.694  1.00  0.00    -0.265 OA
ATOM   1199  H21  DG A  43      90.873  90.570 198.922  1.00  0.00     0.174 HD
ATOM   1200  H22  DG A  43      91.602  92.152 199.106  1.00  0.00     0.174 HD
ATOM   1201  N7   DG A  43      87.109  93.606 195.439  1.00  0.00    -0.234 NA
ATOM   1202  O2'  DA A  42      84.421  90.264 191.500  1.00  0.00    -0.388 OA
ATOM   1203  C1'  DA A  42      85.702  92.134 190.731  1.00  0.00     0.262 C 
ATOM   1204 2'HO  DA A  42      83.565  90.164 191.918  1.00  0.00     0.210 HD
ATOM   1205  N9   DA A  42      86.682  93.141 191.139  1.00  0.00    -0.294 N 
ATOM   1206  C4   DA A  42      87.765  92.946 191.962  1.00  0.00     0.167 A 
ATOM   1207  C8   DA A  42      86.713  94.469 190.789  1.00  0.00     0.214 A 
ATOM   1208  N3   DA A  42      88.147  91.800 192.552  1.00  0.00    -0.222 NA
ATOM   1209  C5   DA A  42      88.388  94.177 192.064  1.00  0.00     0.149 A 
ATOM   1210  C2   DA A  42      89.244  91.991 193.282  1.00  0.00     0.237 A 
ATOM   1211  N1   DA A  42      89.950  93.113 193.474  1.00  0.00    -0.222 NA
ATOM   1212  C6   DA A  42      89.539  94.247 192.867  1.00  0.00     0.155 A 
ATOM   1213  N6   DA A  42      90.240  95.364 193.057  1.00  0.00    -0.382 N 
ATOM   1214  H61  DA A  42      89.946  96.221 192.610  1.00  0.00     0.157 HD
ATOM   1215  H62  DA A  42      91.061  95.359 193.648  1.00  0.00     0.157 HD
ATOM   1216  N7   DA A  42      87.712  95.132 191.317  1.00  0.00    -0.236 NA
ATOM   1217  O2'  DA A  41      84.307  93.365 186.771  1.00  0.00    -0.388 OA
ATOM   1218  C1'  DA A  41      86.398  94.485 186.460  1.00  0.00     0.262 C 
ATOM   1219 2'HO  DA A  41      83.769  93.072 187.508  1.00  0.00     0.210 HD
ATOM   1220  N9   DA A  41      87.528  95.000 187.234  1.00  0.00    -0.294 N 
ATOM   1221  C8   DA A  41      87.925  96.307 187.375  1.00  0.00     0.214 A 
ATOM   1222  C4   DA A  41      88.416  94.256 187.973  1.00  0.00     0.167 A 
ATOM   1223  N7   DA A  41      88.986  96.458 188.131  1.00  0.00    -0.236 NA
ATOM   1224  C5   DA A  41      89.307  95.163 188.516  1.00  0.00     0.149 A 
ATOM   1225  C6   DA A  41      90.333  94.644 189.327  1.00  0.00     0.155 A 
ATOM   1226  N6   DA A  41      91.264  95.395 189.914  1.00  0.00    -0.382 N 
ATOM   1227  N1   DA A  41      90.370  93.307 189.512  1.00  0.00    -0.222 NA
ATOM   1228  H61  DA A  41      91.254  96.396 189.786  1.00  0.00     0.157 HD
ATOM   1229  H62  DA A  41      91.977  94.964 190.486  1.00  0.00     0.157 HD
ATOM   1230  C2   DA A  41      89.436  92.552 188.918  1.00  0.00     0.237 A 
ATOM   1231  N3   DA A  41      88.426  92.922 188.135  1.00  0.00    -0.222 NA
ATOM   1232  C1'  DT A  39      94.261 102.005 183.311  1.00  0.00     0.264 C 
ATOM   1233  O2'  DT A  39      92.175 102.665 182.336  1.00  0.00    -0.388 OA
ATOM   1234  N1   DT A  39      94.892 100.933 184.094  1.00  0.00    -0.280 N 
ATOM   1235  C2   DT A  39      94.616  99.625 183.737  1.00  0.00     0.331 A 
ATOM   1236  C6   DT A  39      95.728 101.217 185.150  1.00  0.00     0.104 A 
ATOM   1237  O2   DT A  39      93.889  99.331 182.806  1.00  0.00    -0.246 OA
ATOM   1238  N3   DT A  39      95.226  98.672 184.512  1.00  0.00    -0.275 N 
ATOM   1239  C4   DT A  39      96.066  98.884 185.579  1.00  0.00     0.250 A 
ATOM   1240  H3   DT A  39      95.029  97.710 184.276  1.00  0.00     0.173 HD
ATOM   1241  O4   DT A  39      96.539  97.919 186.179  1.00  0.00    -0.268 OA
ATOM   1242  C5   DT A  39      96.305 100.261 185.883  1.00  0.00     0.092 A 
ATOM   1243 2'HO  DT A  39      91.481 103.253 182.635  1.00  0.00     0.210 HD
ATOM   1244  O2'  DA A  37     103.986 106.363 184.594  1.00  0.00    -0.388 OA
ATOM   1245  C1'  DA A  37     104.222 104.059 183.992  1.00  0.00     0.262 C 
ATOM   1246 2'HO  DA A  37     104.060 106.727 185.477  1.00  0.00     0.210 HD
ATOM   1247  N9   DA A  37     103.465 102.894 183.537  1.00  0.00    -0.294 N 
ATOM   1248  C8   DA A  37     103.537 101.603 183.998  1.00  0.00     0.214 A 
ATOM   1249  C4   DA A  37     102.517 102.885 182.542  1.00  0.00     0.167 A 
ATOM   1250  N7   DA A  37     102.721 100.779 183.389  1.00  0.00    -0.236 NA
ATOM   1251  C5   DA A  37     102.068 101.580 182.463  1.00  0.00     0.149 A 
ATOM   1252  C6   DA A  37     101.078 101.306 181.504  1.00  0.00     0.155 A 
ATOM   1253  N1   DA A  37     100.642 102.331 180.741  1.00  0.00    -0.222 NA
ATOM   1254  N6   DA A  37     100.551 100.099 181.306  1.00  0.00    -0.382 N 
ATOM   1255  C2   DA A  37     101.172 103.544 180.932  1.00  0.00     0.237 A 
ATOM   1256  N3   DA A  37     102.109 103.927 181.798  1.00  0.00    -0.222 NA
ATOM   1257  H62  DA A  37      99.854  99.969 180.589  1.00  0.00     0.157 HD
ATOM   1258  H61  DA A  37     100.861  99.315 181.864  1.00  0.00     0.157 HD
ATOM   1259  O2'  DC A  36     107.389 100.818 188.612  1.00  0.00    -0.388 OA
ATOM   1260  C1'  DC A  36     107.056  98.864 189.952  1.00  0.00     0.264 C 
ATOM   1261 2'HO  DC A  36     106.694 101.407 188.905  1.00  0.00     0.210 HD
ATOM   1262  N1   DC A  36     108.342  98.164 190.091  1.00  0.00    -0.278 N 
ATOM   1263  C2   DC A  36     109.273  98.634 191.022  1.00  0.00     0.352 A 
ATOM   1264  C6   DC A  36     108.628  97.068 189.323  1.00  0.00     0.102 A 
ATOM   1265  O2   DC A  36     108.989  99.629 191.707  1.00  0.00    -0.244 OA
ATOM   1266  N3   DC A  36     110.457  97.997 191.152  1.00  0.00    -0.177 NA
ATOM   1267  C4   DC A  36     110.727  96.933 190.396  1.00  0.00     0.128 A 
ATOM   1268  C5   DC A  36     109.798  96.428 189.442  1.00  0.00     0.067 A 
ATOM   1269  N4   DC A  36     111.910  96.342 190.556  1.00  0.00    -0.384 N 
ATOM   1270  H42  DC A  36     112.556  96.709 191.240  1.00  0.00     0.157 HD
ATOM   1271  H41  DC A  36     112.159  95.534 190.003  1.00  0.00     0.157 HD
ATOM   1272  C1'  DA A  32      96.072  95.130 179.322  1.00  0.00     0.262 C 
ATOM   1273  O2'  DA A  32      96.163  96.374 177.280  1.00  0.00    -0.388 OA
ATOM   1274  N9   DA A  32      96.806  95.204 180.586  1.00  0.00    -0.294 N 
ATOM   1275  C4   DA A  32      97.201  96.358 181.218  1.00  0.00     0.167 A 
ATOM   1276  C8   DA A  32      97.243  94.172 181.379  1.00  0.00     0.214 A 
ATOM   1277  N3   DA A  32      96.994  97.621 180.811  1.00  0.00    -0.222 NA
ATOM   1278  C5   DA A  32      97.859  95.953 182.364  1.00  0.00     0.149 A 
ATOM   1279  C2   DA A  32      97.520  98.486 181.674  1.00  0.00     0.237 A 
ATOM   1280  N1   DA A  32      98.179  98.248 182.816  1.00  0.00    -0.222 NA
ATOM   1281  C6   DA A  32      98.369  96.966 183.197  1.00  0.00     0.155 A 
ATOM   1282  N6   DA A  32      99.024  96.732 184.334  1.00  0.00    -0.382 N 
ATOM   1283  H61  DA A  32      99.178  95.783 184.640  1.00  0.00     0.157 HD
ATOM   1284  H62  DA A  32      99.365  97.507 184.887  1.00  0.00     0.157 HD
ATOM   1285  N7   DA A  32      97.879  94.568 182.455  1.00  0.00    -0.236 NA
ATOM   1286 2'HO  DA A  32      96.149  95.982 176.407  1.00  0.00     0.210 HD
ENDBRANCH 698 701
ENDBRANCH 697 698
ENDBRANCH 657 697
ENDBRANCH 537 538
ENDBRANCH 536 537
ENDBRANCH 533 536
ENDBRANCH 532 533
ENDBRANCH 515 532
ENDBRANCH 510 511
ENDBRANCH 509 510
ENDBRANCH 506 509
ENDBRANCH 505 506
ENDBRANCH 490 505
ENDBRANCH 485 486
ENDBRANCH 484 485
ENDBRANCH 481 484
ENDBRANCH 480 481
ENDBRANCH 463 480
ENDBRANCH 458 459
ENDBRANCH 457 458
ENDBRANCH 454 457
ENDBRANCH 453 454
ENDBRANCH 438 453
ENDBRANCH 433 434
ENDBRANCH 432 433
ENDBRANCH 429 432
ENDBRANCH 428 429
ENDBRANCH 424 428
BRANCH 425 1287
ATOM   1287  O2'  DG A  20      74.626 104.864 197.396  1.00  0.00    -0.388 OA
ATOM   1288 2'HO  DG A  20      73.954 105.517 197.198  1.00  0.00     0.210 HD
ENDBRANCH 425 1287
BRANCH 426 1289
ATOM   1289  N9   DG A  20      75.271 102.338 194.832  1.00  0.00    -0.293 N 
ATOM   1290  C8   DG A  20      74.392 101.292 194.699  1.00  0.00     0.214 A 
ATOM   1291  N7   DG A  20      74.358 100.797 193.493  1.00  0.00    -0.234 NA
ATOM   1292  C5   DG A  20      75.276 101.561 192.784  1.00  0.00     0.173 A 
ATOM   1293  C6   DG A  20      75.674 101.495 191.422  1.00  0.00     0.292 A 
ATOM   1294  C4   DG A  20      75.851 102.514 193.598  1.00  0.00     0.187 A 
ATOM   1295  O6   DG A  20      75.282 100.724 190.539  1.00  0.00    -0.265 OA
ATOM   1296  N1   DG A  20      76.632 102.459 191.124  1.00  0.00    -0.153 N 
ATOM   1297  H1   DG A  20      76.974 102.492 190.176  1.00  0.00     0.187 HD
ATOM   1298  C2   DG A  20      77.143 103.365 192.016  1.00  0.00     0.703 A 
ATOM   1299  N3   DG A  20      76.781 103.439 193.284  1.00  0.00    -0.044 NA
BRANCH 1298 1300
ATOM   1300  N2   DG A  20      78.059 104.210 191.539  1.00  0.00    -0.233 N 
ATOM   1301  H22  DG A  20      78.019 105.191 191.773  1.00  0.00     0.174 HD
ATOM   1302  H21  DG A  20      78.802 103.854 190.953  1.00  0.00     0.174 HD
ENDBRANCH 1298 1300
ENDBRANCH 426 1289
ENDBRANCH 422 423
ENDBRANCH 421 422
ENDBRANCH 418 421
ENDBRANCH 417 418
ENDBRANCH 400 417
ENDBRANCH 395 396
ENDBRANCH 394 395
ENDBRANCH 391 394
ENDBRANCH 390 391
ENDBRANCH 373 390
ENDBRANCH 368 369
ENDBRANCH 367 368
ENDBRANCH 364 367
ENDBRANCH 363 364
ENDBRANCH 359 363
BRANCH 360 1303
ATOM   1303  O2'  DT A  17      72.355 100.666 191.305  1.00  0.00    -0.388 OA
ATOM   1304 2'HO  DT A  17      73.181 101.140 191.405  1.00  0.00     0.210 HD
ENDBRANCH 360 1303
BRANCH 361 1305
ATOM   1305  N1   DT A  17      72.414 103.824 191.833  1.00  0.00    -0.280 N 
ATOM   1306  C2   DT A  17      73.595 104.484 191.551  1.00  0.00     0.331 A 
ATOM   1307  N3   DT A  17      74.065 105.289 192.557  1.00  0.00    -0.275 N 
ATOM   1308  O2   DT A  17      74.183 104.368 190.490  1.00  0.00    -0.246 OA
ATOM   1309  H3   DT A  17      74.924 105.782 192.371  1.00  0.00     0.173 HD
ATOM   1310  C4   DT A  17      73.489 105.495 193.789  1.00  0.00     0.250 A 
ATOM   1311  O4   DT A  17      74.035 106.253 194.590  1.00  0.00    -0.268 OA
ATOM   1312  C5   DT A  17      72.273 104.777 194.006  1.00  0.00     0.092 A 
ATOM   1313  C6   DT A  17      71.784 103.984 193.047  1.00  0.00     0.104 A 
ENDBRANCH 361 1305
ENDBRANCH 357 358
ENDBRANCH 356 357
ENDBRANCH 353 356
ENDBRANCH 352 353
ENDBRANCH 348 352
BRANCH 349 1314
ATOM   1314  O2'  DT A  16      65.320 102.127 193.050  1.00  0.00    -0.388 OA
ATOM   1315 2'HO  DT A  16      66.140 101.750 192.731  1.00  0.00     0.210 HD
ENDBRANCH 349 1314
BRANCH 350 1316
ATOM   1316  N1   DT A  16      62.514 103.069 190.924  1.00  0.00    -0.280 N 
ATOM   1317  C6   DT A  16      63.156 103.191 189.713  1.00  0.00     0.104 A 
ATOM   1318  C5   DT A  16      62.493 103.239 188.555  1.00  0.00     0.092 A 
ATOM   1319  C4   DT A  16      61.066 103.166 188.543  1.00  0.00     0.250 A 
ATOM   1320  O4   DT A  16      60.348 103.185 187.545  1.00  0.00    -0.268 OA
ATOM   1321  N3   DT A  16      60.490 103.051 189.787  1.00  0.00    -0.275 N 
ATOM   1322  H3   DT A  16      59.482 103.008 189.811  1.00  0.00     0.173 HD
ATOM   1323  C2   DT A  16      61.135 102.997 190.995  1.00  0.00     0.331 A 
ATOM   1324  O2   DT A  16      60.529 102.894 192.047  1.00  0.00    -0.246 OA
ENDBRANCH 350 1316
ENDBRANCH 346 347
ENDBRANCH 345 346
ENDBRANCH 342 345
ENDBRANCH 341 342
ENDBRANCH 337 341
BRANCH 338 1325
ATOM   1325  O2'  DG A  15      67.711 104.668 195.262  1.00  0.00    -0.388 OA
ATOM   1326 2'HO  DG A  15      68.209 104.902 196.045  1.00  0.00     0.210 HD
ENDBRANCH 338 1325
BRANCH 339 1327
ATOM   1327  N9   DG A  15      65.185 102.481 196.668  1.00  0.00    -0.293 N 
ATOM   1328  C4   DG A  15      65.081 101.124 196.483  1.00  0.00     0.187 A 
ATOM   1329  C5   DG A  15      63.736 100.841 196.595  1.00  0.00     0.173 A 
ATOM   1330  N3   DG A  15      66.102 100.276 196.246  1.00  0.00    -0.044 NA
ATOM   1331  N7   DG A  15      63.008 101.997 196.845  1.00  0.00    -0.234 NA
ATOM   1332  C6   DG A  15      63.307  99.497 196.449  1.00  0.00     0.292 A 
ATOM   1333  C8   DG A  15      63.910 102.941 196.879  1.00  0.00     0.214 A 
ATOM   1334  O6   DG A  15      62.160  99.040 196.514  1.00  0.00    -0.265 OA
ATOM   1335  N1   DG A  15      64.376  98.642 196.204  1.00  0.00    -0.153 N 
ATOM   1336  H1   DG A  15      64.164  97.663 196.085  1.00  0.00     0.187 HD
ATOM   1337  C2   DG A  15      65.688  99.030 196.112  1.00  0.00     0.703 A 
BRANCH 1337 1338
ATOM   1338  N2   DG A  15      66.575  98.060 195.869  1.00  0.00    -0.233 N 
ATOM   1339  H22  DG A  15      67.068  98.020 194.991  1.00  0.00     0.174 HD
ATOM   1340  H21  DG A  15      66.747  97.364 196.581  1.00  0.00     0.174 HD
ENDBRANCH 1337 1338
ENDBRANCH 339 1327
ENDBRANCH 335 336
ENDBRANCH 334 335
ENDBRANCH 331 334
ENDBRANCH 330 331
ENDBRANCH 326 330
BRANCH 327 1341
ATOM   1341  O2'  DA A  14      69.819 106.176 202.517  1.00  0.00    -0.388 OA
ATOM   1342 2'HO  DA A  14      70.464 105.613 202.946  1.00  0.00     0.210 HD
ENDBRANCH 327 1341
BRANCH 328 1343
ATOM   1343  N9   DA A  14      70.078 108.568 205.278  1.00  0.00    -0.294 N 
ATOM   1344  C8   DA A  14      69.571 109.772 205.700  1.00  0.00     0.214 A 
ATOM   1345  N7   DA A  14      69.571 109.918 207.003  1.00  0.00    -0.236 NA
ATOM   1346  C5   DA A  14      70.112 108.729 207.471  1.00  0.00     0.149 A 
ATOM   1347  C4   DA A  14      70.430 107.888 206.420  1.00  0.00     0.167 A 
ATOM   1348  C6   DA A  14      70.381 108.256 208.768  1.00  0.00     0.155 A 
ATOM   1349  N3   DA A  14      70.969 106.661 206.505  1.00  0.00    -0.222 NA
ATOM   1350  C2   DA A  14      71.176 106.325 207.776  1.00  0.00     0.237 A 
ATOM   1351  N1   DA A  14      70.923 107.026 208.889  1.00  0.00    -0.222 NA
BRANCH 1348 1352
ATOM   1352  N6   DA A  14      70.131 108.953 209.877  1.00  0.00    -0.382 N 
ATOM   1353  H61  DA A  14      70.437 108.603 210.773  1.00  0.00     0.157 HD
ATOM   1354  H62  DA A  14      69.631 109.828 209.815  1.00  0.00     0.157 HD
ENDBRANCH 1348 1352
ENDBRANCH 328 1343
ENDBRANCH 324 325
ENDBRANCH 323 324
ENDBRANCH 320 323
ENDBRANCH 319 320
ENDBRANCH 318 319
BRANCH 317 1355
ATOM   1355  O2'  DC A  13      71.860 112.363 202.200  1.00  0.00    -0.388 OA
ATOM   1356 2'HO  DC A  13      71.967 111.438 201.976  1.00  0.00     0.210 HD
ENDBRANCH 317 1355
BRANCH 315 1357
ATOM   1357  N4   DC A  13      73.075 110.861 209.458  1.00  0.00    -0.384 N 
ATOM   1358  H41  DC A  13      72.476 111.220 210.188  1.00  0.00     0.157 HD
ATOM   1359  H42  DC A  13      73.723 110.112 209.655  1.00  0.00     0.157 HD
ENDBRANCH 315 1357
TORSDOF 427
ENDMDL
MODEL 5
REMARK VINA RESULT:      -7.6     22.059     40.596
REMARK WARNING: 32 MAX_TORS EXCEEDED!!!
REMARK  99 active torsions:
REMARK  status: ('A' for Active; 'I' for Inactive)
REMARK       I    between atoms: O5'_2  and  C5'_3 
REMARK       I    between atoms: C5'_3  and  C4'_4 
REMARK       I    between atoms: C1'_6  and  N9_7 
REMARK       I    between atoms: C2_10  and  N2_11 
REMARK       I    between atoms: C2'_21  and  O2'_22 
REMARK       I    between atoms: C3'_24  and  O3'_25 
REMARK       I    between atoms: O3'_25  and  P_26 
REMARK       I    between atoms: P_26  and  O5'_29 
REMARK       I    between atoms: O5'_29  and  C5'_30 
REMARK       I    between atoms: C5'_30  and  C4'_31 
REMARK       I    between atoms: C1'_33  and  N9_34 
REMARK       I    between atoms: C2_37  and  N2_38 
REMARK       I    between atoms: C2'_48  and  O2'_49 
REMARK       I    between atoms: C3'_51  and  O3'_52 
REMARK       I    between atoms: O3'_52  and  P_53 
REMARK       I    between atoms: P_53  and  O5'_56 
REMARK       I    between atoms: O5'_56  and  C5'_57 
REMARK       I    between atoms: C5'_57  and  C4'_58 
REMARK       I    between atoms: C1'_60  and  N9_61 
REMARK       I    between atoms: C2_64  and  N2_65 
REMARK       I    between atoms: C2'_75  and  O2'_76 
REMARK       I    between atoms: C3'_78  and  O3'_79 
REMARK       I    between atoms: O3'_79  and  P_80 
REMARK       I    between atoms: P_80  and  O5'_83 
REMARK       I    between atoms: O5'_83  and  C5'_84 
REMARK       I    between atoms: C5'_84  and  C4'_85 
REMARK       I    between atoms: C1'_87  and  N9_88 
REMARK       I    between atoms: C2_91  and  N2_92 
REMARK       I    between atoms: C2'_102  and  O2'_103 
REMARK       I    between atoms: C3'_105  and  O3'_106 
REMARK       I    between atoms: O3'_106  and  P_107 
REMARK       I    between atoms: P_107  and  O5'_110 
REMARK       I    between atoms: O5'_110  and  C5'_111 
REMARK       I    between atoms: C5'_111  and  C4'_112 
REMARK       I    between atoms: C1'_114  and  N9_115 
REMARK       I    between atoms: C2_118  and  N2_119 
REMARK       I    between atoms: C2'_129  and  O2'_130 
REMARK       I    between atoms: C3'_132  and  O3'_133 
REMARK       I    between atoms: O3'_133  and  P_134 
REMARK       I    between atoms: P_134  and  O5'_137 
REMARK       I    between atoms: O5'_137  and  C5'_138 
REMARK       I    between atoms: C5'_138  and  C4'_139 
REMARK       I    between atoms: C1'_141  and  N1_142 
REMARK       I    between atoms: C2'_151  and  O2'_152 
REMARK       I    between atoms: C3'_154  and  O3'_155 
REMARK       I    between atoms: O3'_155  and  P_156 
REMARK       I    between atoms: P_156  and  O5'_159 
REMARK       I    between atoms: O5'_159  and  C5'_160 
REMARK       I    between atoms: C5'_160  and  C4'_161 
REMARK       I    between atoms: C1'_163  and  N9_164 
REMARK       I    between atoms: C2_167  and  N2_168 
REMARK       I    between atoms: C2'_178  and  O2'_179 
REMARK       I    between atoms: C3'_181  and  O3'_182 
REMARK       I    between atoms: O3'_182  and  P_183 
REMARK       I    between atoms: P_183  and  O5'_186 
REMARK       I    between atoms: O5'_186  and  C5'_187 
REMARK       I    between atoms: C5'_187  and  C4'_188 
REMARK       I    between atoms: C1'_190  and  N1_191 
REMARK       I    between atoms: C2'_200  and  O2'_201 
REMARK       I    between atoms: C3'_203  and  O3'_204 
REMARK       I    between atoms: O3'_204  and  P_205 
REMARK       I    between atoms: P_205  and  O5'_208 
REMARK       I    between atoms: O5'_208  and  C5'_209 
REMARK       I    between atoms: C5'_209  and  C4'_210 
REMARK       I    between atoms: C1'_212  and  N9_213 
REMARK       I    between atoms: C6_218  and  N6_219 
REMARK       I    between atoms: C2'_225  and  O2'_226 
REMARK       I    between atoms: C3'_228  and  O3'_229 
REMARK       I    between atoms: O3'_229  and  P_230 
REMARK       I    between atoms: P_230  and  O5'_233 
REMARK       I    between atoms: O5'_233  and  C5'_234 
REMARK       I    between atoms: C5'_234  and  C4'_235 
REMARK       I    between atoms: C1'_237  and  N9_238 
REMARK       I    between atoms: C2_241  and  N2_242 
REMARK       I    between atoms: C2'_252  and  O2'_253 
REMARK       I    between atoms: C3'_255  and  O3'_256 
REMARK       I    between atoms: O3'_256  and  P_257 
REMARK       I    between atoms: P_257  and  O5'_260 
REMARK       I    between atoms: O5'_260  and  C5'_261 
REMARK       I    between atoms: C5'_261  and  C4'_262 
REMARK       I    between atoms: C1'_264  and  N1_265 
REMARK       I    between atoms: C4_270  and  N4_271 
REMARK       I    between atoms: C2'_275  and  O2'_276 
REMARK       I    between atoms: C3'_278  and  O3'_279 
REMARK       I    between atoms: O3'_279  and  P_280 
REMARK       I    between atoms: P_280  and  O5'_283 
REMARK       I    between atoms: O5'_283  and  C5'_284 
REMARK       I    between atoms: C5'_284  and  C4'_285 
REMARK       I    between atoms: C1'_287  and  N1_288 
REMARK       I    between atoms: C2'_297  and  O2'_298 
REMARK       I    between atoms: C3'_300  and  O3'_301 
REMARK       I    between atoms: O3'_301  and  P_302 
REMARK       I    between atoms: P_302  and  O5'_305 
REMARK       I    between atoms: O5'_305  and  C5'_306 
REMARK       I    between atoms: C5'_306  and  C4'_307 
REMARK       I    between atoms: C1'_309  and  N1_310 
REMARK    1  A    between atoms: C4_315  and  N4_316 
REMARK    2  A    between atoms: C2'_320  and  O2'_321 
REMARK    3  A    between atoms: C3'_323  and  O3'_324 
REMARK    4  A    between atoms: O3'_324  and  P_325 
REMARK    5  A    between atoms: P_325  and  O5'_328 
REMARK    6  A    between atoms: O5'_328  and  C5'_329 
REMARK    7  A    between atoms: C5'_329  and  C4'_330 
REMARK    8  A    between atoms: C1'_332  and  N9_333 
REMARK    9  A    between atoms: C6_338  and  N6_339 
REMARK   10  A    between atoms: C2'_345  and  O2'_346 
REMARK   11  A    between atoms: C3'_348  and  O3'_349 
REMARK   12  A    between atoms: O3'_349  and  P_350 
REMARK   13  A    between atoms: P_350  and  O5'_353 
REMARK   14  A    between atoms: O5'_353  and  C5'_354 
REMARK   15  A    between atoms: C5'_354  and  C4'_355 
REMARK   16  A    between atoms: C1'_357  and  N9_358 
REMARK   17  A    between atoms: C2_361  and  N2_362 
REMARK   18  A    between atoms: C2'_372  and  O2'_373 
REMARK   19  A    between atoms: C3'_375  and  O3'_376 
REMARK   20  A    between atoms: O3'_376  and  P_377 
REMARK   21  A    between atoms: P_377  and  O5'_380 
REMARK   22  A    between atoms: O5'_380  and  C5'_381 
REMARK   23  A    between atoms: C5'_381  and  C4'_382 
REMARK   24  A    between atoms: C1'_384  and  N1_385 
REMARK   25  A    between atoms: C2'_394  and  O2'_395 
REMARK   26  A    between atoms: C3'_397  and  O3'_398 
REMARK   27  A    between atoms: O3'_398  and  P_399 
REMARK   28  A    between atoms: P_399  and  O5'_402 
REMARK   29  A    between atoms: O5'_402  and  C5'_403 
REMARK   30  A    between atoms: C5'_403  and  C4'_404 
REMARK   31  A    between atoms: C1'_406  and  N1_407 
REMARK   32  A    between atoms: C2'_416  and  O2'_417 
REMARK   33  A    between atoms: C3'_419  and  O3'_420 
REMARK   34  A    between atoms: O3'_420  and  P_421 
REMARK   35  A    between atoms: P_421  and  O5'_424 
REMARK   36  A    between atoms: O5'_424  and  C5'_425 
REMARK   37  A    between atoms: C5'_425  and  C4'_426 
REMARK   38  A    between atoms: C1'_428  and  N9_429 
REMARK   39  A    between atoms: C2_432  and  N2_433 
REMARK   40  A    between atoms: C2'_443  and  O2'_444 
REMARK   41  A    between atoms: C3'_446  and  O3'_447 
REMARK   42  A    between atoms: O3'_447  and  P_448 
REMARK   43  A    between atoms: P_448  and  O5'_451 
REMARK   44  A    between atoms: O5'_451  and  C5'_452 
REMARK   45  A    between atoms: C5'_452  and  C4'_453 
REMARK   46  A    between atoms: C1'_455  and  N9_456 
REMARK   47  A    between atoms: C2_459  and  N2_460 
REMARK   48  A    between atoms: C2'_470  and  O2'_471 
REMARK   49  A    between atoms: C3'_473  and  O3'_474 
REMARK   50  A    between atoms: O3'_474  and  P_475 
REMARK   51  A    between atoms: P_475  and  O5'_478 
REMARK   52  A    between atoms: O5'_478  and  C5'_479 
REMARK   53  A    between atoms: C5'_479  and  C4'_480 
REMARK   54  A    between atoms: C1'_482  and  N9_483 
REMARK   55  A    between atoms: C2_486  and  N2_487 
REMARK   56  A    between atoms: C2'_497  and  O2'_498 
REMARK   57  A    between atoms: C3'_500  and  O3'_501 
REMARK   58  A    between atoms: O3'_501  and  P_502 
REMARK   59  A    between atoms: P_502  and  O5'_505 
REMARK   60  A    between atoms: O5'_505  and  C5'_506 
REMARK   61  A    between atoms: C5'_506  and  C4'_507 
REMARK   62  A    between atoms: C1'_509  and  N9_510 
REMARK   63  A    between atoms: C6_515  and  N6_516 
REMARK   64  A    between atoms: C2'_522  and  O2'_523 
REMARK   65  A    between atoms: C3'_525  and  O3'_526 
REMARK   66  A    between atoms: O3'_526  and  P_527 
REMARK   67  A    between atoms: P_527  and  O5'_530 
REMARK   68  A    between atoms: O5'_530  and  C5'_531 
REMARK   69  A    between atoms: C5'_531  and  C4'_532 
REMARK   70  A    between atoms: C1'_534  and  N9_535 
REMARK   71  A    between atoms: C2_538  and  N2_539 
REMARK   72  A    between atoms: C2'_549  and  O2'_550 
REMARK   73  A    between atoms: C3'_552  and  O3'_553 
REMARK   74  A    between atoms: O3'_553  and  P_554 
REMARK   75  A    between atoms: P_554  and  O5'_557 
REMARK   76  A    between atoms: O5'_557  and  C5'_558 
REMARK   77  A    between atoms: C5'_558  and  C4'_559 
REMARK   78  A    between atoms: C1'_561  and  N9_562 
REMARK   79  A    between atoms: C6_567  and  N6_568 
REMARK   80  A    between atoms: C2'_574  and  O2'_575 
REMARK   81  A    between atoms: C3'_577  and  O3'_578 
REMARK   82  A    between atoms: O3'_578  and  P_579 
REMARK   83  A    between atoms: P_579  and  O5'_582 
REMARK   84  A    between atoms: O5'_582  and  C5'_583 
REMARK   85  A    between atoms: C5'_583  and  C4'_584 
REMARK   86  A    between atoms: C1'_586  and  N9_587 
REMARK   87  A    between atoms: C2_590  and  N2_591 
REMARK   88  A    between atoms: C2'_601  and  O2'_602 
REMARK   89  A    between atoms: C3'_604  and  O3'_605 
REMARK   90  A    between atoms: O3'_605  and  P_606 
REMARK   91  A    between atoms: P_606  and  O5'_609 
REMARK   92  A    between atoms: O5'_609  and  C5'_610 
REMARK   93  A    between atoms: C5'_610  and  C4'_611 
REMARK   94  A    between atoms: C1'_613  and  N1_614 
REMARK       I    between atoms: C4_619  and  N4_620 
REMARK       I    between atoms: C2'_624  and  O2'_625 
REMARK       I    between atoms: C3'_627  and  O3'_628 
REMARK       I    between atoms: O3'_628  and  P_629 
REMARK       I    between atoms: P_629  and  O5'_632 
REMARK       I    between atoms: O5'_632  and  C5'_633 
REMARK       I    between atoms: C5'_633  and  C4'_634 
REMARK       I    between atoms: C1'_636  and  N9_637 
REMARK       I    between atoms: C2_640  and  N2_641 
REMARK       I    between atoms: C2'_651  and  O2'_652 
REMARK       I    between atoms: C3'_654  and  O3'_655 
REMARK       I    between atoms: O3'_655  and  P_656 
REMARK       I    between atoms: P_656  and  O5'_659 
REMARK       I    between atoms: O5'_659  and  C5'_660 
REMARK       I    between atoms: C5'_660  and  C4'_661 
REMARK       I    between atoms: C1'_663  and  N1_664 
REMARK       I    between atoms: C4_669  and  N4_670 
REMARK       I    between atoms: C2'_674  and  O2'_675 
REMARK       I    between atoms: C3'_677  and  O3'_678 
REMARK       I    between atoms: O3'_678  and  P_679 
REMARK       I    between atoms: P_679  and  O5'_682 
REMARK       I    between atoms: O5'_682  and  C5'_683 
REMARK       I    between atoms: C5'_683  and  C4'_684 
REMARK       I    between atoms: C1'_686  and  N1_687 
REMARK       I    between atoms: C2'_696  and  O2'_697 
REMARK       I    between atoms: C3'_699  and  O3'_700 
REMARK       I    between atoms: O3'_700  and  P_701 
REMARK       I    between atoms: P_701  and  O5'_704 
REMARK       I    between atoms: O5'_704  and  C5'_705 
REMARK       I    between atoms: C5'_705  and  C4'_706 
REMARK       I    between atoms: C1'_708  and  N1_709 
REMARK       I    between atoms: C2'_718  and  O2'_719 
REMARK       I    between atoms: C3'_721  and  O3'_722 
REMARK       I    between atoms: O3'_722  and  P_723 
REMARK       I    between atoms: P_723  and  O5'_726 
REMARK       I    between atoms: O5'_726  and  C5'_727 
REMARK       I    between atoms: C5'_727  and  C4'_728 
REMARK       I    between atoms: C1'_730  and  N1_731 
REMARK       I    between atoms: C4_736  and  N4_737 
REMARK       I    between atoms: C2'_741  and  O2'_742 
REMARK       I    between atoms: C3'_744  and  O3'_745 
REMARK       I    between atoms: O3'_745  and  P_746 
REMARK       I    between atoms: P_746  and  O5'_749 
REMARK       I    between atoms: O5'_749  and  C5'_750 
REMARK       I    between atoms: C5'_750  and  C4'_751 
REMARK       I    between atoms: C1'_753  and  N9_754 
REMARK   95  A    between atoms: C6_759  and  N6_760 
REMARK   96  A    between atoms: C2'_766  and  O2'_767 
REMARK   97  A    between atoms: C3'_769  and  O3'_770 
REMARK   98  A    between atoms: O3'_770  and  P_771 
REMARK   99  A    between atoms: P_771  and  O5'_774 
REMARK       I    between atoms: O5'_774  and  C5'_775 
REMARK       I    between atoms: C5'_775  and  C4'_776 
REMARK       I    between atoms: C1'_778  and  N9_779 
REMARK       I    between atoms: C6_784  and  N6_785 
REMARK       I    between atoms: C2'_791  and  O2'_792 
REMARK       I    between atoms: C3'_794  and  O3'_795 
REMARK       I    between atoms: O3'_795  and  P_796 
REMARK       I    between atoms: P_796  and  O5'_799 
REMARK       I    between atoms: O5'_799  and  C5'_800 
REMARK       I    between atoms: C5'_800  and  C4'_801 
REMARK       I    between atoms: C1'_803  and  N1_804 
REMARK       I    between atoms: C2'_813  and  O2'_814 
REMARK       I    between atoms: C3'_816  and  O3'_817 
REMARK       I    between atoms: O3'_817  and  P_818 
REMARK       I    between atoms: P_818  and  O5'_821 
REMARK       I    between atoms: O5'_821  and  C5'_822 
REMARK       I    between atoms: C5'_822  and  C4'_823 
REMARK       I    between atoms: C1'_825  and  N9_826 
REMARK       I    between atoms: C2_829  and  N2_830 
REMARK       I    between atoms: C2'_840  and  O2'_841 
REMARK       I    between atoms: C3'_843  and  O3'_844 
REMARK       I    between atoms: O3'_844  and  P_845 
REMARK       I    between atoms: P_845  and  O5'_848 
REMARK       I    between atoms: O5'_848  and  C5'_849 
REMARK       I    between atoms: C5'_849  and  C4'_850 
REMARK       I    between atoms: C1'_852  and  N9_853 
REMARK       I    between atoms: C2_856  and  N2_857 
REMARK       I    between atoms: C2'_867  and  O2'_868 
REMARK       I    between atoms: C3'_870  and  O3'_871 
REMARK       I    between atoms: O3'_871  and  P_872 
REMARK       I    between atoms: P_872  and  O5'_875 
REMARK       I    between atoms: O5'_875  and  C5'_876 
REMARK       I    between atoms: C5'_876  and  C4'_877 
REMARK       I    between atoms: C1'_879  and  N1_880 
REMARK       I    between atoms: C4_885  and  N4_886 
REMARK       I    between atoms: C2'_890  and  O2'_891 
REMARK       I    between atoms: C3'_893  and  O3'_894 
REMARK       I    between atoms: O3'_894  and  P_895 
REMARK       I    between atoms: P_895  and  O5'_898 
REMARK       I    between atoms: O5'_898  and  C5'_899 
REMARK       I    between atoms: C5'_899  and  C4'_900 
REMARK       I    between atoms: C1'_902  and  N9_903 
REMARK       I    between atoms: C6_908  and  N6_909 
REMARK       I    between atoms: C2'_915  and  O2'_916 
REMARK       I    between atoms: C3'_918  and  O3'_919 
REMARK       I    between atoms: O3'_919  and  P_920 
REMARK       I    between atoms: P_920  and  O5'_923 
REMARK       I    between atoms: O5'_923  and  C5'_924 
REMARK       I    between atoms: C5'_924  and  C4'_925 
REMARK       I    between atoms: C1'_927  and  N1_928 
REMARK       I    between atoms: C2'_937  and  O2'_938 
REMARK       I    between atoms: C3'_940  and  O3'_941 
REMARK       I    between atoms: O3'_941  and  P_942 
REMARK       I    between atoms: P_942  and  O5'_945 
REMARK       I    between atoms: O5'_945  and  C5'_946 
REMARK       I    between atoms: C5'_946  and  C4'_947 
REMARK       I    between atoms: C1'_949  and  N1_950 
REMARK       I    between atoms: C2'_959  and  O2'_960 
REMARK       I    between atoms: C3'_962  and  O3'_963 
REMARK       I    between atoms: O3'_963  and  P_964 
REMARK       I    between atoms: P_964  and  O5'_967 
REMARK       I    between atoms: O5'_967  and  C5'_968 
REMARK       I    between atoms: C5'_968  and  C4'_969 
REMARK       I    between atoms: C1'_971  and  N9_972 
REMARK       I    between atoms: C2_975  and  N2_976 
REMARK       I    between atoms: C2'_986  and  O2'_987 
REMARK       I    between atoms: C3'_989  and  O3'_990 
REMARK       I    between atoms: O3'_990  and  P_991 
REMARK       I    between atoms: P_991  and  O5'_994 
REMARK       I    between atoms: O5'_994  and  C5'_995 
REMARK       I    between atoms: C5'_995  and  C4'_996 
REMARK       I    between atoms: C1'_998  and  N9_999 
REMARK       I    between atoms: C6_1004  and  N6_1005 
REMARK       I    between atoms: C2'_1011  and  O2'_1012 
REMARK       I    between atoms: C3'_1014  and  O3'_1015 
REMARK       I    between atoms: O3'_1015  and  P_1016 
REMARK       I    between atoms: P_1016  and  O5'_1019 
REMARK       I    between atoms: O5'_1019  and  C5'_1020 
REMARK       I    between atoms: C5'_1020  and  C4'_1021 
REMARK       I    between atoms: C1'_1023  and  N9_1024 
REMARK       I    between atoms: C6_1029  and  N6_1030 
REMARK       I    between atoms: C2'_1036  and  O2'_1037 
REMARK       I    between atoms: C3'_1039  and  O3'_1040 
REMARK       I    between atoms: O3'_1040  and  P_1041 
REMARK       I    between atoms: P_1041  and  O5'_1044 
REMARK       I    between atoms: O5'_1044  and  C5'_1045 
REMARK       I    between atoms: C5'_1045  and  C4'_1046 
REMARK       I    between atoms: C1'_1048  and  N9_1049 
REMARK       I    between atoms: C2_1052  and  N2_1053 
REMARK       I    between atoms: C2'_1063  and  O2'_1064 
REMARK       I    between atoms: C3'_1066  and  O3'_1067 
REMARK       I    between atoms: O3'_1067  and  P_1068 
REMARK       I    between atoms: P_1068  and  O5'_1071 
REMARK       I    between atoms: O5'_1071  and  C5'_1072 
REMARK       I    between atoms: C5'_1072  and  C4'_1073 
REMARK       I    between atoms: C1'_1075  and  N9_1076 
REMARK       I    between atoms: C6_1081  and  N6_1082 
REMARK       I    between atoms: C2'_1088  and  O2'_1089 
REMARK       I    between atoms: C3'_1091  and  O3'_1092 
REMARK       I    between atoms: O3'_1092  and  P_1093 
REMARK       I    between atoms: P_1093  and  O5'_1096 
REMARK       I    between atoms: O5'_1096  and  C5'_1097 
REMARK       I    between atoms: C5'_1097  and  C4'_1098 
REMARK       I    between atoms: C1'_1100  and  N9_1101 
REMARK       I    between atoms: C2_1104  and  N2_1105 
REMARK       I    between atoms: C2'_1115  and  O2'_1116 
REMARK       I    between atoms: C3'_1118  and  O3'_1119 
REMARK       I    between atoms: O3'_1119  and  P_1120 
REMARK       I    between atoms: P_1120  and  O5'_1123 
REMARK       I    between atoms: O5'_1123  and  C5'_1124 
REMARK       I    between atoms: C5'_1124  and  C4'_1125 
REMARK       I    between atoms: C1'_1127  and  N9_1128 
REMARK       I    between atoms: C2_1131  and  N2_1132 
REMARK       I    between atoms: C2'_1142  and  O2'_1143 
REMARK       I    between atoms: C3'_1145  and  O3'_1146 
REMARK       I    between atoms: O3'_1146  and  P_1147 
REMARK       I    between atoms: P_1147  and  O5'_1150 
REMARK       I    between atoms: O5'_1150  and  C5'_1151 
REMARK       I    between atoms: C5'_1151  and  C4'_1152 
REMARK       I    between atoms: C1'_1154  and  N1_1155 
REMARK       I    between atoms: C2'_1164  and  O2'_1165 
REMARK       I    between atoms: C3'_1167  and  O3'_1168 
REMARK       I    between atoms: O3'_1168  and  P_1169 
REMARK       I    between atoms: P_1169  and  O5'_1172 
REMARK       I    between atoms: O5'_1172  and  C5'_1173 
REMARK       I    between atoms: C5'_1173  and  C4'_1174 
REMARK       I    between atoms: C1'_1176  and  N1_1177 
REMARK       I    between atoms: C4_1182  and  N4_1183 
REMARK       I    between atoms: C2'_1187  and  O2'_1188 
REMARK       I    between atoms: C3'_1190  and  O3'_1191 
REMARK       I    between atoms: O3'_1191  and  P_1192 
REMARK       I    between atoms: P_1192  and  O5'_1195 
REMARK       I    between atoms: O5'_1195  and  C5'_1196 
REMARK       I    between atoms: C5'_1196  and  C4'_1197 
REMARK       I    between atoms: C1'_1199  and  N9_1200 
REMARK       I    between atoms: C6_1205  and  N6_1206 
REMARK       I    between atoms: C2'_1212  and  O2'_1213 
REMARK       I    between atoms: C3'_1215  and  O3'_1216 
REMARK       I    between atoms: O3'_1216  and  P_1217 
REMARK       I    between atoms: P_1217  and  O5'_1220 
REMARK       I    between atoms: O5'_1220  and  C5'_1221 
REMARK       I    between atoms: C5'_1221  and  C4'_1222 
REMARK       I    between atoms: C1'_1224  and  N9_1225 
REMARK       I    between atoms: C2_1228  and  N2_1229 
REMARK       I    between atoms: C2'_1239  and  O2'_1240 
REMARK       I    between atoms: C3'_1242  and  O3'_1243 
REMARK       I    between atoms: O3'_1243  and  P_1244 
REMARK       I    between atoms: P_1244  and  O5'_1247 
REMARK       I    between atoms: O5'_1247  and  C5'_1248 
REMARK       I    between atoms: C5'_1248  and  C4'_1249 
REMARK       I    between atoms: C1'_1251  and  N1_1252 
REMARK       I    between atoms: C4_1257  and  N4_1258 
REMARK       I    between atoms: C2'_1262  and  O2'_1263 
REMARK       I    between atoms: C3'_1265  and  O3'_1266 
REMARK       I    between atoms: O3'_1266  and  P_1267 
REMARK       I    between atoms: P_1267  and  O5'_1270 
REMARK       I    between atoms: O5'_1270  and  C5'_1271 
REMARK       I    between atoms: C5'_1271  and  C4'_1272 
REMARK       I    between atoms: C1'_1274  and  N1_1275 
REMARK       I    between atoms: C4_1280  and  N4_1281 
REMARK       I    between atoms: C2'_1285  and  O2'_1286 
REMARK       I    between atoms: C3'_1288  and  O3'_1289 
REMARK       I    between atoms: O3'_1289  and  P_1290 
REMARK       I    between atoms: P_1290  and  O5'_1293 
REMARK       I    between atoms: O5'_1293  and  C5'_1294 
REMARK       I    between atoms: C5'_1294  and  C4'_1295 
REMARK       I    between atoms: C1'_1297  and  N1_1298 
REMARK       I    between atoms: C4_1303  and  N4_1304 
REMARK       I    between atoms: C2'_1308  and  O2'_1309 
REMARK       I    between atoms: C3'_1311  and  O3'_1312 
REMARK       I    between atoms: O3'_1312  and  P_1313 
REMARK       I    between atoms: P_1313  and  O5'_1316 
REMARK       I    between atoms: O5'_1316  and  C5'_1317 
REMARK       I    between atoms: C5'_1317  and  C4'_1318 
REMARK       I    between atoms: C1'_1320  and  N1_1321 
REMARK       I    between atoms: C4_1326  and  N4_1327 
REMARK       I    between atoms: C2'_1331  and  O2'_1332 
REMARK       I    between atoms: C3'_1334  and  O3'_1335 
REMARK       I    between atoms: O3'_1335  and  P_1336 
REMARK       I    between atoms: P_1336  and  O5'_1339 
REMARK       I    between atoms: O5'_1339  and  C5'_1340 
REMARK       I    between atoms: C5'_1340  and  C4'_1341 
REMARK       I    between atoms: C1'_1343  and  N1_1344 
REMARK       I    between atoms: C4_1349  and  N4_1350 
REMARK       I    between atoms: C2'_1354  and  O2'_1355 
REMARK       I    between atoms: C3'_1357  and  O3'_1358 
ROOT
ATOM      1 5'HO  DG A   1      90.733 156.396 162.328  1.00  0.00     0.209 HD
ATOM      2  O5'  DG A   1      89.859 155.997 162.371  1.00  0.00    -0.398 OA
ATOM      3  C5'  DG A   1      89.596 155.424 161.087  1.00  0.00     0.198 C 
ATOM      4  C4'  DG A   1      90.849 155.398 160.243  1.00  0.00     0.180 C 
ATOM      5  O4'  DG A   1      91.209 156.766 159.901  1.00  0.00    -0.353 OA
ATOM      6  C1'  DG A   1      92.606 156.946 160.051  1.00  0.00     0.262 C 
ATOM      7  N9   DG A   1      92.835 157.849 161.176  1.00  0.00    -0.293 N 
ATOM      8  C4   DG A   1      94.052 158.284 161.641  1.00  0.00     0.187 A 
ATOM      9  N3   DG A   1      95.259 157.949 161.138  1.00  0.00    -0.044 NA
ATOM     10  C2   DG A   1      96.245 158.529 161.798  1.00  0.00     0.703 A 
ATOM     11  N2   DG A   1      97.510 158.308 161.429  1.00  0.00    -0.233 N 
ATOM     12  H21  DG A   1      97.697 157.698 160.647  1.00  0.00     0.174 HD
ATOM     13  H22  DG A   1      98.270 158.749 161.928  1.00  0.00     0.174 HD
ATOM     14  N1   DG A   1      96.066 159.368 162.867  1.00  0.00    -0.153 N 
ATOM     15  H1   DG A   1      96.889 159.757 163.300  1.00  0.00     0.187 HD
ATOM     16  C6   DG A   1      94.835 159.726 163.404  1.00  0.00     0.292 A 
ATOM     17  O6   DG A   1      94.788 160.495 164.374  1.00  0.00    -0.265 OA
ATOM     18  C5   DG A   1      93.763 159.112 162.706  1.00  0.00     0.173 A 
ATOM     19  N7   DG A   1      92.391 159.197 162.906  1.00  0.00    -0.234 NA
ATOM     20  C8   DG A   1      91.884 158.433 161.978  1.00  0.00     0.214 A 
ATOM     21  C2'  DG A   1      93.223 155.561 160.236  1.00  0.00     0.199 C 
ATOM     22  O2'  DG A   1      93.490 155.007 158.960  1.00  0.00    -0.388 OA
ATOM     23 2'HO  DG A   1      93.541 154.058 159.077  1.00  0.00     0.210 HD
ATOM     24  C3'  DG A   1      92.083 154.825 160.929  1.00  0.00     0.198 C 
ATOM     25  O3'  DG A   1      92.164 153.412 160.758  1.00  0.00    -0.279 OA
ATOM     26  P    DG A   2      92.805 152.501 161.919  1.00  0.00     0.408 P 
ATOM     27  OP1  DG A   2      92.670 151.086 161.489  1.00  0.00    -0.624 OA
ATOM     28  OP2  DG A   2      92.233 152.929 163.221  1.00  0.00    -0.624 OA
ATOM     29  O5'  DG A   2      94.351 152.884 161.900  1.00  0.00    -0.287 OA
ATOM     30  C5'  DG A   2      95.175 152.564 160.781  1.00  0.00     0.216 C 
ATOM     31  C4'  DG A   2      96.630 152.799 161.117  1.00  0.00     0.180 C 
ATOM     32  O4'  DG A   2      96.895 154.228 161.107  1.00  0.00    -0.353 OA
ATOM     33  C1'  DG A   2      97.826 154.547 162.128  1.00  0.00     0.262 C 
ATOM     34  N9   DG A   2      97.183 155.450 163.076  1.00  0.00    -0.293 N 
ATOM     35  C4   DG A   2      97.815 156.268 163.982  1.00  0.00     0.187 A 
ATOM     36  N3   DG A   2      99.148 156.383 164.152  1.00  0.00    -0.044 NA
ATOM     37  C2   DG A   2      99.452 157.248 165.102  1.00  0.00     0.703 A 
ATOM     38  N2   DG A   2     100.731 157.481 165.402  1.00  0.00    -0.233 N 
ATOM     39  H21  DG A   2     101.456 156.992 164.897  1.00  0.00     0.174 HD
ATOM     40  H22  DG A   2     100.975 158.139 166.130  1.00  0.00     0.174 HD
ATOM     41  N1   DG A   2      98.523 157.948 165.830  1.00  0.00    -0.153 N 
ATOM     42  H1   DG A   2      98.863 158.583 166.534  1.00  0.00     0.187 HD
ATOM     43  C6   DG A   2      97.146 157.849 165.672  1.00  0.00     0.292 A 
ATOM     44  O6   DG A   2      96.397 158.532 166.381  1.00  0.00    -0.265 OA
ATOM     45  C5   DG A   2      96.802 156.921 164.655  1.00  0.00     0.173 A 
ATOM     46  N7   DG A   2      95.559 156.523 164.181  1.00  0.00    -0.234 NA
ATOM     47  C8   DG A   2      95.835 155.652 163.249  1.00  0.00     0.214 A 
ATOM     48  C2'  DG A   2      98.283 153.231 162.757  1.00  0.00     0.199 C 
ATOM     49  O2'  DG A   2      99.417 152.759 162.053  1.00  0.00    -0.388 OA
ATOM     50 2'HO  DG A   2      99.911 152.211 162.663  1.00  0.00     0.210 HD
ATOM     51  C3'  DG A   2      97.066 152.351 162.504  1.00  0.00     0.198 C 
ATOM     52  O3'  DG A   2      97.376 150.961 162.540  1.00  0.00    -0.279 OA
ATOM     53  P    DG A   3      97.319 150.167 163.937  1.00  0.00     0.408 P 
ATOM     54  OP1  DG A   3      97.718 148.763 163.664  1.00  0.00    -0.624 OA
ATOM     55  OP2  DG A   3      96.009 150.444 164.581  1.00  0.00    -0.624 OA
ATOM     56  O5'  DG A   3      98.462 150.847 164.816  1.00  0.00    -0.287 OA
ATOM     57  C5'  DG A   3      99.823 150.440 164.691  1.00  0.00     0.216 C 
ATOM     58  C4'  DG A   3     100.737 151.440 165.366  1.00  0.00     0.180 C 
ATOM     59  O4'  DG A   3     100.215 152.781 165.182  1.00  0.00    -0.353 OA
ATOM     60  C1'  DG A   3     100.645 153.599 166.256  1.00  0.00     0.262 C 
ATOM     61  N9   DG A   3      99.485 154.295 166.805  1.00  0.00    -0.293 N 
ATOM     62  C4   DG A   3      99.502 155.237 167.805  1.00  0.00     0.187 A 
ATOM     63  N3   DG A   3     100.597 155.684 168.455  1.00  0.00    -0.044 NA
ATOM     64  C2   DG A   3     100.294 156.588 169.369  1.00  0.00     0.703 A 
ATOM     65  N2   DG A   3     101.261 157.132 170.111  1.00  0.00    -0.233 N 
ATOM     66  H21  DG A   3     102.217 156.842 169.964  1.00  0.00     0.174 HD
ATOM     67  H22  DG A   3     101.040 157.820 170.818  1.00  0.00     0.174 HD
ATOM     68  N1   DG A   3      99.019 157.027 169.622  1.00  0.00    -0.153 N 
ATOM     69  H1   DG A   3      98.901 157.722 170.342  1.00  0.00     0.187 HD
ATOM     70  C6   DG A   3      97.877 156.587 168.964  1.00  0.00     0.292 A 
ATOM     71  O6   DG A   3      96.774 157.054 169.271  1.00  0.00    -0.265 OA
ATOM     72  C5   DG A   3      98.186 155.608 167.982  1.00  0.00     0.173 A 
ATOM     73  N7   DG A   3      97.356 154.912 167.111  1.00  0.00    -0.234 NA
ATOM     74  C8   DG A   3      98.170 154.147 166.437  1.00  0.00     0.214 A 
ATOM     75  C2'  DG A   3     101.357 152.705 167.275  1.00  0.00     0.199 C 
ATOM     76  O2'  DG A   3     102.754 152.820 167.072  1.00  0.00    -0.388 OA
ATOM     77 2'HO  DG A   3     103.113 151.934 167.134  1.00  0.00     0.210 HD
ATOM     78  C3'  DG A   3     100.855 151.321 166.877  1.00  0.00     0.198 C 
ATOM     79  O3'  DG A   3     101.760 150.286 167.256  1.00  0.00    -0.279 OA
ATOM     80  P    DG A   4     101.623 149.593 168.702  1.00  0.00     0.408 P 
ATOM     81  OP1  DG A   4     102.796 148.697 168.871  1.00  0.00    -0.624 OA
ATOM     82  OP2  DG A   4     100.252 149.037 168.827  1.00  0.00    -0.624 OA
ATOM     83  O5'  DG A   4     101.771 150.803 169.730  1.00  0.00    -0.287 OA
ATOM     84  C5'  DG A   4     103.009 151.498 169.875  1.00  0.00     0.216 C 
ATOM     85  C4'  DG A   4     102.979 152.369 171.110  1.00  0.00     0.180 C 
ATOM     86  O4'  DG A   4     102.244 153.586 170.820  1.00  0.00    -0.353 OA
ATOM     87  C1'  DG A   4     101.632 154.058 172.008  1.00  0.00     0.262 C 
ATOM     88  N9   DG A   4     100.207 154.243 171.753  1.00  0.00    -0.293 N 
ATOM     89  C4   DG A   4      99.367 155.100 172.421  1.00  0.00     0.187 A 
ATOM     90  N3   DG A   4      99.715 155.925 173.429  1.00  0.00    -0.044 NA
ATOM     91  C2   DG A   4      98.688 156.626 173.870  1.00  0.00     0.703 A 
ATOM     92  N2   DG A   4      98.862 157.501 174.863  1.00  0.00    -0.233 N 
ATOM     93  H21  DG A   4      99.782 157.613 175.264  1.00  0.00     0.174 HD
ATOM     94  H22  DG A   4      98.086 158.045 175.211  1.00  0.00     0.174 HD
ATOM     95  N1   DG A   4      97.416 156.524 173.367  1.00  0.00    -0.153 N 
ATOM     96  H1   DG A   4      96.697 157.099 173.778  1.00  0.00     0.187 HD
ATOM     97  C6   DG A   4      97.032 155.683 172.329  1.00  0.00     0.292 A 
ATOM     98  O6   DG A   4      95.855 155.674 171.951  1.00  0.00    -0.265 OA
ATOM     99  C5   DG A   4      98.128 154.923 171.841  1.00  0.00     0.173 A 
ATOM    100  N7   DG A   4      98.188 153.976 170.827  1.00  0.00    -0.234 NA
ATOM    101  C8   DG A   4      99.439 153.603 170.812  1.00  0.00     0.214 A 
ATOM    102  C2'  DG A   4     101.924 153.049 173.121  1.00  0.00     0.199 C 
ATOM    103  O2'  DG A   4     103.050 153.500 173.852  1.00  0.00    -0.388 OA
ATOM    104 2'HO  DG A   4     103.124 152.942 174.627  1.00  0.00     0.210 HD
ATOM    105  C3'  DG A   4     102.251 151.796 172.316  1.00  0.00     0.198 C 
ATOM    106  O3'  DG A   4     103.069 150.877 173.040  1.00  0.00    -0.279 OA
ATOM    107  P    DG A   5     102.394 149.626 173.796  1.00  0.00     0.408 P 
ATOM    108  OP1  DG A   5     103.430 148.566 173.893  1.00  0.00    -0.624 OA
ATOM    109  OP2  DG A   5     101.092 149.319 173.150  1.00  0.00    -0.624 OA
ATOM    110  O5'  DG A   5     102.101 150.170 175.267  1.00  0.00    -0.287 OA
ATOM    111  C5'  DG A   5     103.111 150.148 176.276  1.00  0.00     0.216 C 
ATOM    112  C4'  DG A   5     102.973 151.352 177.182  1.00  0.00     0.180 C 
ATOM    113  O4'  DG A   5     102.453 152.469 176.412  1.00  0.00    -0.353 OA
ATOM    114  C1'  DG A   5     101.600 153.254 177.227  1.00  0.00     0.262 C 
ATOM    115  N9   DG A   5     100.274 153.280 176.620  1.00  0.00    -0.293 N 
ATOM    116  C4   DG A   5      99.332 154.272 176.759  1.00  0.00     0.187 A 
ATOM    117  N3   DG A   5      99.471 155.403 177.483  1.00  0.00    -0.044 NA
ATOM    118  C2   DG A   5      98.394 156.163 177.422  1.00  0.00     0.703 A 
ATOM    119  N2   DG A   5      98.361 157.324 178.082  1.00  0.00    -0.233 N 
ATOM    120  H21  DG A   5      99.165 157.609 178.623  1.00  0.00     0.174 HD
ATOM    121  H22  DG A   5      97.545 157.918 178.037  1.00  0.00     0.174 HD
ATOM    122  N1   DG A   5      97.267 155.843 176.710  1.00  0.00    -0.153 N 
ATOM    123  H1   DG A   5      96.502 156.499 176.730  1.00  0.00     0.187 HD
ATOM    124  C6   DG A   5      97.098 154.685 175.961  1.00  0.00     0.292 A 
ATOM    125  O6   DG A   5      96.037 154.495 175.358  1.00  0.00    -0.265 OA
ATOM    126  C5   DG A   5      98.250 153.856 176.014  1.00  0.00     0.173 A 
ATOM    127  N7   DG A   5      98.504 152.627 175.418  1.00  0.00    -0.234 NA
ATOM    128  C8   DG A   5      99.713 152.327 175.806  1.00  0.00     0.214 A 
ATOM    129  C2'  DG A   5     101.613 152.651 178.632  1.00  0.00     0.199 C 
ATOM    130  O2'  DG A   5     102.619 153.292 179.393  1.00  0.00    -0.388 OA
ATOM    131 2'HO  DG A   5     103.100 152.602 179.848  1.00  0.00     0.210 HD
ATOM    132  C3'  DG A   5     101.988 151.204 178.333  1.00  0.00     0.198 C 
ATOM    133  O3'  DG A   5     102.580 150.559 179.458  1.00  0.00    -0.279 OA
ATOM    134  P    DT A   6     101.652 149.751 180.497  1.00  0.00     0.408 P 
ATOM    135  OP1  DT A   6     102.462 149.507 181.717  1.00  0.00    -0.624 OA
ATOM    136  OP2  DT A   6     101.044 148.604 179.779  1.00  0.00    -0.624 OA
ATOM    137  O5'  DT A   6     100.492 150.781 180.863  1.00  0.00    -0.287 OA
ATOM    138  C5'  DT A   6     100.744 151.908 181.702  1.00  0.00     0.216 C 
ATOM    139  C4'  DT A   6      99.441 152.514 182.171  1.00  0.00     0.180 C 
ATOM    140  O4'  DT A   6      98.834 153.258 181.082  1.00  0.00    -0.353 OA
ATOM    141  C1'  DT A   6      97.422 153.192 181.194  1.00  0.00     0.264 C 
ATOM    142  N1   DT A   6      96.880 152.619 179.952  1.00  0.00    -0.280 N 
ATOM    143  C6   DT A   6      97.663 151.861 179.109  1.00  0.00     0.104 A 
ATOM    144  C2   DT A   6      95.552 152.865 179.660  1.00  0.00     0.331 A 
ATOM    145  O2   DT A   6      94.828 153.532 180.376  1.00  0.00    -0.246 OA
ATOM    146  N3   DT A   6      95.100 152.303 178.494  1.00  0.00    -0.275 N 
ATOM    147  H3   DT A   6      94.127 152.451 178.272  1.00  0.00     0.173 HD
ATOM    148  C4   DT A   6      95.823 151.541 177.608  1.00  0.00     0.250 A 
ATOM    149  O4   DT A   6      95.273 151.112 176.593  1.00  0.00    -0.268 OA
ATOM    150  C5   DT A   6      97.188 151.331 177.977  1.00  0.00     0.092 A 
ATOM    151  C2'  DT A   6      97.095 152.365 182.438  1.00  0.00     0.199 C 
ATOM    152  O2'  DT A   6      96.940 153.245 183.536  1.00  0.00    -0.388 OA
ATOM    153 2'HO  DT A   6      96.369 152.803 184.167  1.00  0.00     0.210 HD
ATOM    154  C3'  DT A   6      98.358 151.525 182.572  1.00  0.00     0.198 C 
ATOM    155  O3'  DT A   6      98.553 151.031 183.895  1.00  0.00    -0.279 OA
ATOM    156  P    DG A   7      97.971 149.588 184.301  1.00  0.00     0.408 P 
ATOM    157  OP1  DG A   7      98.491 149.268 185.656  1.00  0.00    -0.624 OA
ATOM    158  OP2  DG A   7      98.219 148.646 183.180  1.00  0.00    -0.624 OA
ATOM    159  O5'  DG A   7      96.399 149.823 184.415  1.00  0.00    -0.287 OA
ATOM    160  C5'  DG A   7      95.846 150.573 185.495  1.00  0.00     0.216 C 
ATOM    161  C4'  DG A   7      94.372 150.822 185.262  1.00  0.00     0.180 C 
ATOM    162  O4'  DG A   7      94.182 151.471 183.979  1.00  0.00    -0.353 OA
ATOM    163  C1'  DG A   7      92.895 151.147 183.480  1.00  0.00     0.262 C 
ATOM    164  N9   DG A   7      93.037 150.661 182.111  1.00  0.00    -0.293 N 
ATOM    165  C4   DG A   7      92.044 150.593 181.163  1.00  0.00     0.187 A 
ATOM    166  N3   DG A   7      90.759 150.968 181.333  1.00  0.00    -0.044 NA
ATOM    167  C2   DG A   7      90.043 150.783 180.238  1.00  0.00     0.703 A 
ATOM    168  N2   DG A   7      88.747 151.104 180.231  1.00  0.00    -0.233 N 
ATOM    169  H21  DG A   7      88.326 151.486 181.065  1.00  0.00     0.174 HD
ATOM    170  H22  DG A   7      88.187 150.958 179.402  1.00  0.00     0.174 HD
ATOM    171  N1   DG A   7      90.545 150.271 179.069  1.00  0.00    -0.153 N 
ATOM    172  H1   DG A   7      89.908 150.172 178.293  1.00  0.00     0.187 HD
ATOM    173  C6   DG A   7      91.862 149.878 178.870  1.00  0.00     0.292 A 
ATOM    174  O6   DG A   7      92.209 149.425 177.774  1.00  0.00    -0.265 OA
ATOM    175  C5   DG A   7      92.646 150.072 180.038  1.00  0.00     0.173 A 
ATOM    176  N7   DG A   7      93.992 149.815 180.272  1.00  0.00    -0.234 NA
ATOM    177  C8   DG A   7      94.175 150.179 181.513  1.00  0.00     0.214 A 
ATOM    178  C2'  DG A   7      92.269 150.120 184.426  1.00  0.00     0.199 C 
ATOM    179  O2'  DG A   7      91.402 150.796 185.318  1.00  0.00    -0.388 OA
ATOM    180 2'HO  DG A   7      90.831 150.131 185.704  1.00  0.00     0.210 HD
ATOM    181  C3'  DG A   7      93.498 149.584 185.153  1.00  0.00     0.198 C 
ATOM    182  O3'  DG A   7      93.179 149.042 186.433  1.00  0.00    -0.279 OA
ATOM    183  P    DT A   8      92.709 147.509 186.558  1.00  0.00     0.408 P 
ATOM    184  OP1  DT A   8      92.286 147.289 187.964  1.00  0.00    -0.624 OA
ATOM    185  OP2  DT A   8      93.763 146.647 185.964  1.00  0.00    -0.624 OA
ATOM    186  O5'  DT A   8      91.418 147.424 185.626  1.00  0.00    -0.287 OA
ATOM    187  C5'  DT A   8      90.103 147.464 186.179  1.00  0.00     0.216 C 
ATOM    188  C4'  DT A   8      89.123 148.020 185.169  1.00  0.00     0.180 C 
ATOM    189  O4'  DT A   8      89.852 148.621 184.067  1.00  0.00    -0.353 OA
ATOM    190  C1'  DT A   8      89.126 148.449 182.863  1.00  0.00     0.264 C 
ATOM    191  N1   DT A   8      89.987 147.753 181.895  1.00  0.00    -0.280 N 
ATOM    192  C6   DT A   8      91.186 147.192 182.278  1.00  0.00     0.104 A 
ATOM    193  C2   DT A   8      89.554 147.678 180.584  1.00  0.00     0.331 A 
ATOM    194  O2   DT A   8      88.501 148.157 180.206  1.00  0.00    -0.246 OA
ATOM    195  N3   DT A   8      90.400 147.021 179.730  1.00  0.00    -0.275 N 
ATOM    196  H3   DT A   8      90.101 146.954 178.770  1.00  0.00     0.173 HD
ATOM    197  C4   DT A   8      91.608 146.444 180.041  1.00  0.00     0.250 A 
ATOM    198  O4   DT A   8      92.257 145.889 179.155  1.00  0.00    -0.268 OA
ATOM    199  C5   DT A   8      91.987 146.559 181.415  1.00  0.00     0.092 A 
ATOM    200  C2'  DT A   8      87.837 147.694 183.195  1.00  0.00     0.199 C 
ATOM    201  O2'  DT A   8      86.805 148.638 183.409  1.00  0.00    -0.388 OA
ATOM    202 2'HO  DT A   8      86.540 148.554 184.325  1.00  0.00     0.210 HD
ATOM    203  C3'  DT A   8      88.222 146.993 184.495  1.00  0.00     0.198 C 
ATOM    204  O3'  DT A   8      87.093 146.683 185.309  1.00  0.00    -0.279 OA
ATOM    205  P    DA A   9      86.102 145.486 184.886  1.00  0.00     0.408 P 
ATOM    206  OP1  DA A   9      86.088 145.414 183.404  1.00  0.00    -0.624 OA
ATOM    207  OP2  DA A   9      84.825 145.683 185.619  1.00  0.00    -0.624 OA
ATOM    208  O5'  DA A   9      86.804 144.178 185.466  1.00  0.00    -0.287 OA
ATOM    209  C5'  DA A   9      87.749 143.436 184.693  1.00  0.00     0.216 C 
ATOM    210  C4'  DA A   9      87.034 142.461 183.786  1.00  0.00     0.180 C 
ATOM    211  O4'  DA A   9      86.868 143.089 182.485  1.00  0.00    -0.353 OA
ATOM    212  C1'  DA A   9      87.241 142.188 181.464  1.00  0.00     0.262 C 
ATOM    213  N9   DA A   9      88.482 142.673 180.857  1.00  0.00    -0.294 N 
ATOM    214  C4   DA A   9      89.758 142.225 181.115  1.00  0.00     0.167 A 
ATOM    215  N3   DA A   9      90.125 141.259 181.973  1.00  0.00    -0.222 NA
ATOM    216  C2   DA A   9      91.445 141.096 181.959  1.00  0.00     0.237 A 
ATOM    217  N1   DA A   9      92.370 141.738 181.236  1.00  0.00    -0.222 NA
ATOM    218  C6   DA A   9      91.967 142.702 180.382  1.00  0.00     0.155 A 
ATOM    219  N6   DA A   9      92.891 143.337 179.662  1.00  0.00    -0.382 N 
ATOM    220  H61  DA A   9      92.617 144.063 179.014  1.00  0.00     0.157 HD
ATOM    221  H62  DA A   9      93.861 143.082 179.764  1.00  0.00     0.157 HD
ATOM    222  C5   DA A   9      90.590 142.975 180.306  1.00  0.00     0.149 A 
ATOM    223  N7   DA A   9      89.858 143.882 179.551  1.00  0.00    -0.236 NA
ATOM    224  C8   DA A   9      88.617 143.664 179.917  1.00  0.00     0.214 A 
ATOM    225  C2'  DA A   9      87.347 140.803 182.098  1.00  0.00     0.199 C 
ATOM    226  O2'  DA A   9      86.065 140.204 182.081  1.00  0.00    -0.388 OA
ATOM    227 2'HO  DA A   9      86.119 139.401 182.600  1.00  0.00     0.210 HD
ATOM    228  C3'  DA A   9      87.779 141.157 183.517  1.00  0.00     0.198 C 
ATOM    229  O3'  DA A   9      87.422 140.145 184.457  1.00  0.00    -0.279 OA
ATOM    230  P    DG A  10      88.425 138.916 184.734  1.00  0.00     0.408 P 
ATOM    231  OP1  DG A  10      89.623 139.086 183.871  1.00  0.00    -0.624 OA
ATOM    232  OP2  DG A  10      88.595 138.782 186.203  1.00  0.00    -0.624 OA
ATOM    233  O5'  DG A  10      87.629 137.638 184.210  1.00  0.00    -0.287 OA
ATOM    234  C5'  DG A  10      86.365 137.275 184.766  1.00  0.00     0.216 C 
ATOM    235  C4'  DG A  10      85.369 136.994 183.662  1.00  0.00     0.180 C 
ATOM    236  O4'  DG A  10      85.881 137.524 182.410  1.00  0.00    -0.353 OA
ATOM    237  C1'  DG A  10      85.552 136.646 181.347  1.00  0.00     0.262 C 
ATOM    238  N9   DG A  10      86.793 136.145 180.762  1.00  0.00    -0.293 N 
ATOM    239  C4   DG A  10      86.903 135.325 179.665  1.00  0.00     0.187 A 
ATOM    240  N3   DG A  10      85.880 134.837 178.935  1.00  0.00    -0.044 NA
ATOM    241  C2   DG A  10      86.303 134.077 177.940  1.00  0.00     0.703 A 
ATOM    242  N2   DG A  10      85.417 133.510 177.117  1.00  0.00    -0.233 N 
ATOM    243  H21  DG A  10      84.432 133.668 177.266  1.00  0.00     0.174 HD
ATOM    244  H22  DG A  10      85.729 132.932 176.347  1.00  0.00     0.174 HD
ATOM    245  N1   DG A  10      87.623 133.817 177.679  1.00  0.00    -0.153 N 
ATOM    246  H1   DG A  10      87.839 133.226 176.892  1.00  0.00     0.187 HD
ATOM    247  C6   DG A  10      88.695 134.308 178.417  1.00  0.00     0.292 A 
ATOM    248  O6   DG A  10      89.850 134.006 178.094  1.00  0.00    -0.265 OA
ATOM    249  C5   DG A  10      88.257 135.127 179.491  1.00  0.00     0.173 A 
ATOM    250  N7   DG A  10      88.984 135.807 180.461  1.00  0.00    -0.234 NA
ATOM    251  C8   DG A  10      88.074 136.394 181.190  1.00  0.00     0.214 A 
ATOM    252  C2'  DG A  10      84.657 135.547 181.918  1.00  0.00     0.199 C 
ATOM    253  O2'  DG A  10      83.307 135.959 181.812  1.00  0.00    -0.388 OA
ATOM    254 2'HO  DG A  10      82.952 135.979 182.700  1.00  0.00     0.210 HD
ATOM    255  C3'  DG A  10      85.111 135.521 183.373  1.00  0.00     0.198 C 
ATOM    256  O3'  DG A  10      84.116 134.982 184.241  1.00  0.00    -0.279 OA
ATOM    257  P    DC A  11      84.286 133.494 184.830  1.00  0.00     0.408 P 
ATOM    258  OP1  DC A  11      83.248 133.315 185.877  1.00  0.00    -0.624 OA
ATOM    259  OP2  DC A  11      85.716 133.284 185.171  1.00  0.00    -0.624 OA
ATOM    260  O5'  DC A  11      83.925 132.545 183.601  1.00  0.00    -0.287 OA
ATOM    261  C5'  DC A  11      82.592 132.473 183.093  1.00  0.00     0.216 C 
ATOM    262  C4'  DC A  11      82.499 131.413 182.019  1.00  0.00     0.180 C 
ATOM    263  O4'  DC A  11      83.140 131.916 180.814  1.00  0.00    -0.353 OA
ATOM    264  C1'  DC A  11      83.939 130.899 180.237  1.00  0.00     0.264 C 
ATOM    265  N1   DC A  11      85.354 131.282 180.375  1.00  0.00    -0.278 N 
ATOM    266  C6   DC A  11      85.742 132.205 181.306  1.00  0.00     0.102 A 
ATOM    267  C2   DC A  11      86.299 130.688 179.535  1.00  0.00     0.352 A 
ATOM    268  O2   DC A  11      85.923 129.849 178.704  1.00  0.00    -0.244 OA
ATOM    269  N3   DC A  11      87.598 131.041 179.649  1.00  0.00    -0.177 NA
ATOM    270  C4   DC A  11      87.966 131.946 180.557  1.00  0.00     0.128 A 
ATOM    271  N4   DC A  11      89.258 132.264 180.630  1.00  0.00    -0.384 N 
ATOM    272  H41  DC A  11      89.578 132.945 181.303  1.00  0.00     0.157 HD
ATOM    273  H42  DC A  11      89.917 131.823 180.004  1.00  0.00     0.157 HD
ATOM    274  C5   DC A  11      87.025 132.565 181.429  1.00  0.00     0.067 A 
ATOM    275  C2'  DC A  11      83.584 129.592 180.941  1.00  0.00     0.199 C 
ATOM    276  O2'  DC A  11      82.468 129.015 180.288  1.00  0.00    -0.388 OA
ATOM    277 2'HO  DC A  11      81.806 128.853 180.961  1.00  0.00     0.210 HD
ATOM    278  C3'  DC A  11      83.211 130.101 182.328  1.00  0.00     0.198 C 
ATOM    279  O3'  DC A  11      82.365 129.192 183.026  1.00  0.00    -0.279 OA
ATOM    280  P    DT A  12      83.013 127.992 183.880  1.00  0.00     0.408 P 
ATOM    281  OP1  DT A  12      81.897 127.243 184.511  1.00  0.00    -0.624 OA
ATOM    282  OP2  DT A  12      84.094 128.553 184.731  1.00  0.00    -0.624 OA
ATOM    283  O5'  DT A  12      83.688 127.053 182.782  1.00  0.00    -0.287 OA
ATOM    284  C5'  DT A  12      82.893 126.352 181.825  1.00  0.00     0.216 C 
ATOM    285  C4'  DT A  12      83.730 125.314 181.114  1.00  0.00     0.180 C 
ATOM    286  O4'  DT A  12      84.541 125.974 180.104  1.00  0.00    -0.353 OA
ATOM    287  C1'  DT A  12      85.832 125.389 180.066  1.00  0.00     0.264 C 
ATOM    288  N1   DT A  12      86.813 126.407 180.467  1.00  0.00    -0.280 N 
ATOM    289  C6   DT A  12      86.501 127.369 181.399  1.00  0.00     0.104 A 
ATOM    290  C2   DT A  12      88.063 126.367 179.875  1.00  0.00     0.331 A 
ATOM    291  O2   DT A  12      88.378 125.534 179.045  1.00  0.00    -0.246 OA
ATOM    292  N3   DT A  12      88.932 127.341 180.293  1.00  0.00    -0.275 N 
ATOM    293  H3   DT A  12      89.852 127.325 179.877  1.00  0.00     0.173 HD
ATOM    294  C4   DT A  12      88.686 128.331 181.217  1.00  0.00     0.250 A 
ATOM    295  O4   DT A  12      89.574 129.138 181.490  1.00  0.00    -0.268 OA
ATOM    296  C5   DT A  12      87.373 128.306 181.779  1.00  0.00     0.092 A 
ATOM    297  C2'  DT A  12      85.806 124.165 180.982  1.00  0.00     0.199 C 
ATOM    298  O2'  DT A  12      85.402 123.041 180.224  1.00  0.00    -0.388 OA
ATOM    299 2'HO  DT A  12      85.012 122.418 180.837  1.00  0.00     0.210 HD
ATOM    300  C3'  DT A  12      84.733 124.571 181.986  1.00  0.00     0.198 C 
ATOM    301  O3'  DT A  12      84.139 123.449 182.632  1.00  0.00    -0.279 OA
ATOM    302  P    DC A  13      84.848 122.802 183.922  1.00  0.00     0.408 P 
ATOM    303  OP1  DC A  13      83.929 121.764 184.453  1.00  0.00    -0.624 OA
ATOM    304  OP2  DC A  13      85.299 123.906 184.810  1.00  0.00    -0.624 OA
ATOM    305  O5'  DC A  13      86.131 122.067 183.326  1.00  0.00    -0.287 OA
ATOM    306  C5'  DC A  13      87.446 122.391 183.776  1.00  0.00     0.216 C 
ATOM    307  C4'  DC A  13      88.427 122.287 182.632  1.00  0.00     0.180 C 
ATOM    308  O4'  DC A  13      88.464 123.561 181.931  1.00  0.00    -0.353 OA
ATOM    309  C1'  DC A  13      89.803 123.893 181.607  1.00  0.00     0.264 C 
ATOM    310  N1   DC A  13      90.185 125.088 182.380  1.00  0.00    -0.278 N 
ATOM    311  C6   DC A  13      89.325 125.641 183.287  1.00  0.00     0.102 A 
ATOM    312  C2   DC A  13      91.451 125.648 182.176  1.00  0.00     0.352 A 
ATOM    313  O2   DC A  13      92.212 125.131 181.345  1.00  0.00    -0.244 OA
ATOM    314  N3   DC A  13      91.813 126.738 182.887  1.00  0.00    -0.177 NA
ATOM    315  C4   DC A  13      90.966 127.269 183.769  1.00  0.00     0.128 A 
ATOM    316  C5   DC A  13      89.670 126.723 183.998  1.00  0.00     0.067 A 
ATOM    317  C2'  DC A  13      90.661 122.665 181.905  1.00  0.00     0.199 C 
ATOM    318  C3'  DC A  13      89.871 122.021 183.038  1.00  0.00     0.198 C 
ENDROOT
BRANCH 318 319
ATOM    319  O3'  DC A  13      90.134 120.626 183.156  1.00  0.00    -0.279 OA
BRANCH 319 320
ATOM    320  P    DA A  14      91.368 120.119 184.054  1.00  0.00     0.408 P 
ATOM    321  OP2  DA A  14      90.825 119.287 185.157  1.00  0.00    -0.624 OA
ATOM    322  OP1  DA A  14      92.379 119.542 183.130  1.00  0.00    -0.624 OA
BRANCH 320 323
ATOM    323  O5'  DA A  14      91.960 121.458 184.686  1.00  0.00    -0.287 OA
BRANCH 323 324
ATOM    324  C5'  DA A  14      93.255 121.937 184.327  1.00  0.00     0.216 C 
BRANCH 324 325
ATOM    325  C4'  DA A  14      93.692 123.025 185.280  1.00  0.00     0.180 C 
ATOM    326  C3'  DA A  14      93.593 122.669 186.758  1.00  0.00     0.198 C 
ATOM    327  C2'  DA A  14      93.384 124.027 187.413  1.00  0.00     0.199 C 
ATOM    328  C1'  DA A  14      92.489 124.715 186.383  1.00  0.00     0.262 C 
ATOM    329  O4'  DA A  14      92.817 124.174 185.115  1.00  0.00    -0.353 OA
BRANCH 326 330
ATOM    330  O3'  DA A  14      94.771 122.019 187.225  1.00  0.00    -0.279 OA
BRANCH 330 331
ATOM    331  P    DG A  15      96.119 122.081 186.348  1.00  0.00     0.408 P 
ATOM    332  OP2  DG A  15      96.167 120.876 185.481  1.00  0.00    -0.624 OA
ATOM    333  OP1  DG A  15      96.180 123.430 185.730  1.00  0.00    -0.624 OA
BRANCH 331 334
ATOM    334  O5'  DG A  15      97.289 121.968 187.424  1.00  0.00    -0.287 OA
BRANCH 334 335
ATOM    335  C5'  DG A  15      98.525 122.661 187.245  1.00  0.00     0.216 C 
BRANCH 335 336
ATOM    336  C4'  DG A  15      99.689 121.718 187.451  1.00  0.00     0.180 C 
ATOM    337  C3'  DG A  15     100.163 121.557 188.889  1.00  0.00     0.198 C 
ATOM    338  C2'  DG A  15     101.607 121.105 188.691  1.00  0.00     0.199 C 
ATOM    339  C1'  DG A  15     102.021 122.008 187.532  1.00  0.00     0.262 C 
ATOM    340  O4'  DG A  15     100.856 122.244 186.756  1.00  0.00    -0.353 OA
BRANCH 337 341
ATOM    341  O3'  DG A  15      99.323 120.670 189.648  1.00  0.00    -0.279 OA
BRANCH 341 342
ATOM    342  P    DT A  16      99.492 120.528 191.247  1.00  0.00     0.408 P 
ATOM    343  OP2  DT A  16     100.677 121.338 191.630  1.00  0.00    -0.624 OA
ATOM    344  OP1  DT A  16      98.185 120.802 191.898  1.00  0.00    -0.624 OA
BRANCH 342 345
ATOM    345  O5'  DT A  16      99.860 118.992 191.465  1.00  0.00    -0.287 OA
BRANCH 345 346
ATOM    346  C5'  DT A  16      99.650 118.027 190.436  1.00  0.00     0.216 C 
BRANCH 346 347
ATOM    347  C4'  DT A  16      99.691 116.630 191.014  1.00  0.00     0.180 C 
ATOM    348  C3'  DT A  16      99.610 115.499 189.999  1.00  0.00     0.198 C 
ATOM    349  C2'  DT A  16      99.030 114.355 190.825  1.00  0.00     0.199 C 
ATOM    350  C1'  DT A  16      98.064 115.106 191.743  1.00  0.00     0.264 C 
ATOM    351  O4'  DT A  16      98.526 116.440 191.860  1.00  0.00    -0.353 OA
BRANCH 348 352
ATOM    352  O3'  DT A  16     100.891 115.176 189.460  1.00  0.00    -0.279 OA
BRANCH 352 353
ATOM    353  P    DT A  17     101.164 115.346 187.883  1.00  0.00     0.408 P 
ATOM    354  OP2  DT A  17     100.916 116.759 187.502  1.00  0.00    -0.624 OA
ATOM    355  OP1  DT A  17     102.489 114.734 187.604  1.00  0.00    -0.624 OA
BRANCH 353 356
ATOM    356  O5'  DT A  17     100.056 114.430 187.191  1.00  0.00    -0.287 OA
BRANCH 356 357
ATOM    357  C5'  DT A  17      99.116 114.971 186.259  1.00  0.00     0.216 C 
BRANCH 357 358
ATOM    358  C4'  DT A  17      98.057 113.944 185.923  1.00  0.00     0.180 C 
ATOM    359  C3'  DT A  17      97.657 113.881 184.452  1.00  0.00     0.198 C 
ATOM    360  C2'  DT A  17      96.476 114.844 184.379  1.00  0.00     0.199 C 
ATOM    361  C1'  DT A  17      95.807 114.589 185.727  1.00  0.00     0.264 C 
ATOM    362  O4'  DT A  17      96.837 114.278 186.644  1.00  0.00    -0.353 OA
BRANCH 359 363
ATOM    363  O3'  DT A  17      97.307 112.550 184.074  1.00  0.00    -0.279 OA
BRANCH 363 364
ATOM    364  P    DG A  18      98.349 111.652 183.238  1.00  0.00     0.408 P 
ATOM    365  OP2  DG A  18      97.777 111.415 181.889  1.00  0.00    -0.624 OA
ATOM    366  OP1  DG A  18      99.694 112.272 183.368  1.00  0.00    -0.624 OA
BRANCH 364 367
ATOM    367  O5'  DG A  18      98.373 110.265 184.023  1.00  0.00    -0.287 OA
BRANCH 367 368
ATOM    368  C5'  DG A  18      97.162 109.581 184.345  1.00  0.00     0.216 C 
BRANCH 368 369
ATOM    369  C4'  DG A  18      97.083 109.339 185.835  1.00  0.00     0.180 C 
ATOM    370  O4'  DG A  18      96.081 110.232 186.394  1.00  0.00    -0.353 OA
ATOM    371  C1'  DG A  18      94.949 109.487 186.805  1.00  0.00     0.262 C 
ATOM    372  C2'  DG A  18      95.120 108.065 186.276  1.00  0.00     0.199 C 
ATOM    373  C3'  DG A  18      96.639 107.940 186.246  1.00  0.00     0.198 C 
BRANCH 371 374
ATOM    374  N9   DG A  18      93.754 110.162 186.309  1.00  0.00    -0.293 N 
ATOM    375  C4   DG A  18      92.868 110.907 187.049  1.00  0.00     0.187 A 
ATOM    376  C5   DG A  18      91.912 111.335 186.153  1.00  0.00     0.173 A 
ATOM    377  N3   DG A  18      92.948 111.148 188.374  1.00  0.00    -0.044 NA
ATOM    378  C6   DG A  18      90.843 112.141 186.627  1.00  0.00     0.292 A 
ATOM    379  N7   DG A  18      92.190 110.869 184.874  1.00  0.00    -0.234 NA
ATOM    380  N1   DG A  18      90.948 112.375 187.993  1.00  0.00    -0.153 N 
ATOM    381  O6   DG A  18      89.897 112.621 185.993  1.00  0.00    -0.265 OA
ATOM    382  C2   DG A  18      91.948 111.898 188.800  1.00  0.00     0.703 A 
ATOM    383  H1   DG A  18      90.229 112.940 188.417  1.00  0.00     0.187 HD
ATOM    384  C8   DG A  18      93.290 110.181 185.016  1.00  0.00     0.214 A 
BRANCH 382 385
ATOM    385  N2   DG A  18      91.875 112.232 190.091  1.00  0.00    -0.233 N 
ATOM    386  H21  DG A  18      92.675 112.660 190.534  1.00  0.00     0.174 HD
ATOM    387  H22  DG A  18      91.032 112.058 190.617  1.00  0.00     0.174 HD
ENDBRANCH 382 385
ENDBRANCH 371 374
BRANCH 372 388
ATOM    388  O2'  DG A  18      94.550 107.163 187.205  1.00  0.00    -0.388 OA
ATOM    389 2'HO  DG A  18      94.503 107.623 188.045  1.00  0.00     0.210 HD
ENDBRANCH 372 388
BRANCH 373 390
ATOM    390  O3'  DG A  18      97.176 107.570 187.515  1.00  0.00    -0.279 OA
BRANCH 390 391
ATOM    391  P    DG A  19      97.942 106.165 187.681  1.00  0.00     0.408 P 
ATOM    392  OP1  DG A  19      97.257 105.417 188.767  1.00  0.00    -0.624 OA
ATOM    393  OP2  DG A  19      99.400 106.431 187.783  1.00  0.00    -0.624 OA
BRANCH 391 394
ATOM    394  O5'  DG A  19      97.652 105.401 186.311  1.00  0.00    -0.287 OA
BRANCH 394 395
ATOM    395  C5'  DG A  19      96.642 104.396 186.221  1.00  0.00     0.216 C 
BRANCH 395 396
ATOM    396  C4'  DG A  19      96.613 103.812 184.828  1.00  0.00     0.180 C 
ATOM    397  O4'  DG A  19      95.252 103.384 184.537  1.00  0.00    -0.353 OA
ATOM    398  C1'  DG A  19      94.767 104.074 183.402  1.00  0.00     0.262 C 
ATOM    399  C2'  DG A  19      95.643 105.312 183.238  1.00  0.00     0.199 C 
ATOM    400  C3'  DG A  19      96.992 104.781 183.711  1.00  0.00     0.198 C 
BRANCH 398 401
ATOM    401  N9   DG A  19      93.351 104.359 183.612  1.00  0.00    -0.293 N 
ATOM    402  C4   DG A  19      92.311 103.468 183.489  1.00  0.00     0.187 A 
ATOM    403  N3   DG A  19      92.419 102.168 183.146  1.00  0.00    -0.044 NA
ATOM    404  C5   DG A  19      91.174 104.189 183.786  1.00  0.00     0.173 A 
ATOM    405  C2   DG A  19      91.243 101.569 183.112  1.00  0.00     0.703 A 
ATOM    406  N1   DG A  19      90.054 102.192 183.391  1.00  0.00    -0.153 N 
ATOM    407  H1   DG A  19      89.210 101.645 183.338  1.00  0.00     0.187 HD
ATOM    408  C6   DG A  19      89.917 103.530 183.745  1.00  0.00     0.292 A 
ATOM    409  O6   DG A  19      88.794 103.992 183.974  1.00  0.00    -0.265 OA
ATOM    410  N7   DG A  19      91.490 105.507 184.090  1.00  0.00    -0.234 NA
ATOM    411  C8   DG A  19      92.789 105.560 183.973  1.00  0.00     0.214 A 
BRANCH 405 412
ATOM    412  N2   DG A  19      91.167 100.275 182.790  1.00  0.00    -0.233 N 
ATOM    413  H21  DG A  19      90.569  99.669 183.333  1.00  0.00     0.174 HD
ATOM    414  H22  DG A  19      91.699  99.906 182.015  1.00  0.00     0.174 HD
ENDBRANCH 405 412
ENDBRANCH 398 401
BRANCH 399 415
ATOM    415  O2'  DG A  19      95.686 105.662 181.867  1.00  0.00    -0.388 OA
ATOM    416 2'HO  DG A  19      95.620 104.842 181.376  1.00  0.00     0.210 HD
ENDBRANCH 399 415
BRANCH 400 417
ATOM    417  O3'  DG A  19      97.706 104.121 182.668  1.00  0.00    -0.279 OA
BRANCH 417 418
ATOM    418  P    DG A  20      99.314 104.176 182.638  1.00  0.00     0.408 P 
ATOM    419  OP2  DG A  20      99.769 103.866 181.259  1.00  0.00    -0.624 OA
ATOM    420  OP1  DG A  20      99.720 105.456 183.274  1.00  0.00    -0.624 OA
BRANCH 418 421
ATOM    421  O5'  DG A  20      99.760 102.982 183.594  1.00  0.00    -0.287 OA
BRANCH 421 422
ATOM    422  C5'  DG A  20      99.837 101.641 183.109  1.00  0.00     0.216 C 
BRANCH 422 423
ATOM    423  C4'  DG A  20     100.875 100.864 183.886  1.00  0.00     0.180 C 
ATOM    424  C3'  DG A  20     101.234 101.436 185.253  1.00  0.00     0.198 C 
ATOM    425  C2'  DG A  20     102.670 100.964 185.444  1.00  0.00     0.199 C 
ATOM    426  C1'  DG A  20     103.210 101.090 184.020  1.00  0.00     0.262 C 
ATOM    427  O4'  DG A  20     102.123 100.873 183.139  1.00  0.00    -0.353 OA
BRANCH 424 428
ATOM    428  O3'  DG A  20     100.366 100.951 186.274  1.00  0.00    -0.279 OA
BRANCH 428 429
ATOM    429  P    DA A  21      99.708 101.983 187.319  1.00  0.00     0.408 P 
ATOM    430  OP2  DA A  21     100.009 103.364 186.865  1.00  0.00    -0.624 OA
ATOM    431  OP1  DA A  21      98.295 101.567 187.514  1.00  0.00    -0.624 OA
BRANCH 429 432
ATOM    432  O5'  DA A  21     100.490 101.711 188.681  1.00  0.00    -0.287 OA
BRANCH 432 433
ATOM    433  C5'  DA A  21     101.716 102.382 188.977  1.00  0.00     0.216 C 
BRANCH 433 434
ATOM    434  C4'  DA A  21     102.654 101.452 189.712  1.00  0.00     0.180 C 
ATOM    435  O4'  DA A  21     103.266 100.551 188.749  1.00  0.00    -0.353 OA
ATOM    436  C1'  DA A  21     104.613 100.306 189.112  1.00  0.00     0.262 C 
ATOM    437  C2'  DA A  21     104.881 101.021 190.438  1.00  0.00     0.199 C 
ATOM    438  C3'  DA A  21     103.829 102.124 190.409  1.00  0.00     0.198 C 
BRANCH 436 439
ATOM    439  N9   DA A  21     105.473 100.762 188.022  1.00  0.00    -0.294 N 
ATOM    440  C8   DA A  21     106.037 102.003 187.855  1.00  0.00     0.214 A 
ATOM    441  N7   DA A  21     106.773 102.107 186.774  1.00  0.00    -0.236 NA
ATOM    442  C5   DA A  21     106.686 100.852 186.190  1.00  0.00     0.149 A 
ATOM    443  C6   DA A  21     107.243 100.312 185.017  1.00  0.00     0.155 A 
ATOM    444  C4   DA A  21     105.887 100.014 186.946  1.00  0.00     0.167 A 
ATOM    445  N1   DA A  21     106.958  99.027 184.718  1.00  0.00    -0.222 NA
ATOM    446  C2   DA A  21     106.166  98.337 185.549  1.00  0.00     0.237 A 
ATOM    447  N3   DA A  21     105.583  98.732 186.679  1.00  0.00    -0.222 NA
BRANCH 443 448
ATOM    448  N6   DA A  21     108.033 100.996 184.190  1.00  0.00    -0.382 N 
ATOM    449  H61  DA A  21     108.282 101.951 184.406  1.00  0.00     0.157 HD
ATOM    450  H62  DA A  21     108.381 100.555 183.351  1.00  0.00     0.157 HD
ENDBRANCH 443 448
ENDBRANCH 436 439
BRANCH 437 451
ATOM    451  O2'  DA A  21     104.639 100.113 191.495  1.00  0.00    -0.388 OA
ATOM    452 2'HO  DA A  21     103.688 100.081 191.612  1.00  0.00     0.210 HD
ENDBRANCH 437 451
BRANCH 438 453
ATOM    453  O3'  DA A  21     103.475 102.566 191.718  1.00  0.00    -0.279 OA
BRANCH 453 454
ATOM    454  P    DG A  22     103.913 104.034 192.214  1.00  0.00     0.408 P 
ATOM    455  OP2  DG A  22     103.558 105.017 191.158  1.00  0.00    -0.624 OA
ATOM    456  OP1  DG A  22     103.376 104.207 193.587  1.00  0.00    -0.624 OA
BRANCH 454 457
ATOM    457  O5'  DG A  22     105.502 103.947 192.316  1.00  0.00    -0.287 OA
BRANCH 457 458
ATOM    458  C5'  DG A  22     106.197 104.412 193.473  1.00  0.00     0.216 C 
BRANCH 458 459
ATOM    459  C4'  DG A  22     106.806 103.245 194.213  1.00  0.00     0.180 C 
ATOM    460  O4'  DG A  22     106.141 103.111 195.503  1.00  0.00    -0.353 OA
ATOM    461  C1'  DG A  22     105.836 101.749 195.744  1.00  0.00     0.262 C 
ATOM    462  C2'  DG A  22     106.654 100.939 194.742  1.00  0.00     0.199 C 
ATOM    463  C3'  DG A  22     106.646 101.883 193.548  1.00  0.00     0.198 C 
BRANCH 461 464
ATOM    464  N9   DG A  22     104.393 101.566 195.608  1.00  0.00    -0.293 N 
ATOM    465  C8   DG A  22     103.745 100.662 194.803  1.00  0.00     0.214 A 
ATOM    466  N7   DG A  22     102.445 100.727 194.897  1.00  0.00    -0.234 NA
ATOM    467  C5   DG A  22     102.220 101.739 195.822  1.00  0.00     0.173 A 
ATOM    468  C4   DG A  22     103.413 102.267 196.270  1.00  0.00     0.187 A 
ATOM    469  C6   DG A  22     101.005 102.266 196.331  1.00  0.00     0.292 A 
ATOM    470  N3   DG A  22     103.610 103.259 197.164  1.00  0.00    -0.044 NA
ATOM    471  C2   DG A  22     102.470 103.739 197.628  1.00  0.00     0.703 A 
ATOM    472  N1   DG A  22     101.234 103.285 197.248  1.00  0.00    -0.153 N 
ATOM    473  H1   DG A  22     100.426 103.722 197.662  1.00  0.00     0.187 HD
ATOM    474  O6   DG A  22      99.845 101.931 196.061  1.00  0.00    -0.265 OA
BRANCH 471 475
ATOM    475  N2   DG A  22     102.481 104.729 198.525  1.00  0.00    -0.233 N 
ATOM    476  H21  DG A  22     102.178 104.544 199.470  1.00  0.00     0.174 HD
ATOM    477  H22  DG A  22     102.791 105.653 198.260  1.00  0.00     0.174 HD
ENDBRANCH 471 475
ENDBRANCH 461 464
BRANCH 462 478
ATOM    478  O2'  DG A  22     107.964 100.771 195.253  1.00  0.00    -0.388 OA
ATOM    479 2'HO  DG A  22     108.463 100.310 194.580  1.00  0.00     0.210 HD
ENDBRANCH 462 478
BRANCH 463 480
ATOM    480  O3'  DG A  22     107.705 101.613 192.632  1.00  0.00    -0.279 OA
BRANCH 480 481
ATOM    481  P    DA A  23     109.089 102.426 192.747  1.00  0.00     0.408 P 
ATOM    482  OP2  DA A  23     108.788 103.880 192.746  1.00  0.00    -0.624 OA
ATOM    483  OP1  DA A  23     109.854 101.838 193.875  1.00  0.00    -0.624 OA
BRANCH 481 484
ATOM    484  O5'  DA A  23     109.856 102.079 191.394  1.00  0.00    -0.287 OA
BRANCH 484 485
ATOM    485  C5'  DA A  23     109.949 100.735 190.925  1.00  0.00     0.216 C 
BRANCH 485 486
ATOM    486  C4'  DA A  23     108.688  99.974 191.266  1.00  0.00     0.180 C 
ATOM    487  O4'  DA A  23     107.953  99.699 190.039  1.00  0.00    -0.353 OA
ATOM    488  C1'  DA A  23     107.430  98.383 190.081  1.00  0.00     0.262 C 
ATOM    489  C2'  DA A  23     107.618  97.877 191.509  1.00  0.00     0.199 C 
ATOM    490  C3'  DA A  23     108.896  98.606 191.900  1.00  0.00     0.198 C 
BRANCH 488 491
ATOM    491  N9   DA A  23     108.123  97.579 189.073  1.00  0.00    -0.294 N 
ATOM    492  C8   DA A  23     108.918  98.025 188.048  1.00  0.00     0.214 A 
ATOM    493  N7   DA A  23     109.402  97.065 187.297  1.00  0.00    -0.236 NA
ATOM    494  C5   DA A  23     108.894  95.907 187.870  1.00  0.00     0.149 A 
ATOM    495  C6   DA A  23     109.038  94.549 187.542  1.00  0.00     0.155 A 
ATOM    496  C4   DA A  23     108.105  96.209 188.966  1.00  0.00     0.167 A 
ATOM    497  N1   DA A  23     108.401  93.644 188.316  1.00  0.00    -0.222 NA
ATOM    498  C2   DA A  23     107.670  94.086 189.348  1.00  0.00     0.237 A 
ATOM    499  N3   DA A  23     107.457  95.336 189.756  1.00  0.00    -0.222 NA
BRANCH 495 500
ATOM    500  N6   DA A  23     109.765  94.109 186.514  1.00  0.00    -0.382 N 
ATOM    501  H62  DA A  23     109.403  93.385 185.909  1.00  0.00     0.157 HD
ATOM    502  H61  DA A  23     110.680  94.500 186.345  1.00  0.00     0.157 HD
ENDBRANCH 495 500
ENDBRANCH 488 491
BRANCH 489 503
ATOM    503  O2'  DA A  23     106.520  98.306 192.292  1.00  0.00    -0.388 OA
ATOM    504 2'HO  DA A  23     106.335  97.603 192.915  1.00  0.00     0.210 HD
ENDBRANCH 489 503
BRANCH 490 505
ATOM    505  O3'  DA A  23     109.068  98.697 193.311  1.00  0.00    -0.279 OA
BRANCH 505 506
ATOM    506  P    DG A  24     109.191  97.355 194.190  1.00  0.00     0.408 P 
ATOM    507  OP1  DG A  24     109.824  97.729 195.480  1.00  0.00    -0.624 OA
ATOM    508  OP2  DG A  24     109.804  96.290 193.354  1.00  0.00    -0.624 OA
BRANCH 506 509
ATOM    509  O5'  DG A  24     107.678  96.948 194.481  1.00  0.00    -0.287 OA
BRANCH 509 510
ATOM    510  C5'  DG A  24     107.341  95.632 194.920  1.00  0.00     0.216 C 
BRANCH 510 511
ATOM    511  C4'  DG A  24     106.660  94.871 193.808  1.00  0.00     0.180 C 
ATOM    512  O4'  DG A  24     107.657  94.110 193.077  1.00  0.00    -0.353 OA
ATOM    513  C1'  DG A  24     107.106  92.870 192.667  1.00  0.00     0.262 C 
ATOM    514  C2'  DG A  24     105.641  92.837 193.106  1.00  0.00     0.199 C 
ATOM    515  C3'  DG A  24     105.646  93.832 194.261  1.00  0.00     0.198 C 
BRANCH 513 516
ATOM    516  N9   DG A  24     107.913  91.798 193.239  1.00  0.00    -0.293 N 
ATOM    517  C4   DG A  24     108.043  90.522 192.746  1.00  0.00     0.187 A 
ATOM    518  N3   DG A  24     107.438  90.032 191.645  1.00  0.00    -0.044 NA
ATOM    519  C5   DG A  24     108.906  89.882 193.610  1.00  0.00     0.173 A 
ATOM    520  C2   DG A  24     107.758  88.770 191.427  1.00  0.00     0.703 A 
ATOM    521  N1   DG A  24     108.605  88.044 192.223  1.00  0.00    -0.153 N 
ATOM    522  H1   DG A  24     108.782  87.085 191.969  1.00  0.00     0.187 HD
ATOM    523  C6   DG A  24     109.241  88.526 193.361  1.00  0.00     0.292 A 
ATOM    524  O6   DG A  24     109.988  87.784 194.008  1.00  0.00    -0.265 OA
ATOM    525  N7   DG A  24     109.309  90.736 194.629  1.00  0.00    -0.234 NA
ATOM    526  C8   DG A  24     108.693  91.857 194.369  1.00  0.00     0.214 A 
BRANCH 520 527
ATOM    527  N2   DG A  24     107.245  88.128 190.374  1.00  0.00    -0.233 N 
ATOM    528  H21  DG A  24     106.646  87.331 190.528  1.00  0.00     0.174 HD
ATOM    529  H22  DG A  24     107.458  88.430 189.433  1.00  0.00     0.174 HD
ENDBRANCH 520 527
ENDBRANCH 513 516
BRANCH 514 530
ATOM    530  O2'  DG A  24     104.837  93.302 192.038  1.00  0.00    -0.388 OA
ATOM    531 2'HO  DG A  24     105.298  93.075 191.230  1.00  0.00     0.210 HD
ENDBRANCH 514 530
BRANCH 515 532
ATOM    532  O3'  DG A  24     104.366  94.418 194.478  1.00  0.00    -0.279 OA
BRANCH 532 533
ATOM    533  P    DC A  25     104.061  95.896 193.924  1.00  0.00     0.408 P 
ATOM    534  OP2  DC A  25     104.564  96.878 194.919  1.00  0.00    -0.624 OA
ATOM    535  OP1  DC A  25     104.559  95.948 192.526  1.00  0.00    -0.624 OA
BRANCH 533 536
ATOM    536  O5'  DC A  25     102.470  95.975 193.900  1.00  0.00    -0.287 OA
BRANCH 536 537
ATOM    537  C5'  DC A  25     101.716  96.045 195.110  1.00  0.00     0.216 C 
BRANCH 537 538
ATOM    538  C4'  DC A  25     100.244  96.189 194.800  1.00  0.00     0.180 C 
ATOM    539  O4'  DC A  25     100.039  97.452 194.114  1.00  0.00    -0.353 OA
ATOM    540  C1'  DC A  25      99.050  97.300 193.112  1.00  0.00     0.264 C 
ATOM    541  C2'  DC A  25      98.508  95.872 193.194  1.00  0.00     0.199 C 
ATOM    542  C3'  DC A  25      99.666  95.136 193.863  1.00  0.00     0.198 C 
ATOM    543  O2'  DC A  25      97.361  95.870 194.020  1.00  0.00    -0.388 OA
ATOM    544  O3'  DC A  25      99.214  93.987 194.576  1.00  0.00    -0.279 OA
ATOM    545  P    DG A  26     100.255  92.825 194.975  1.00  0.00     0.408 P 
ATOM    546  OP1  DG A  26     100.147  92.632 196.444  1.00  0.00    -0.624 OA
ATOM    547  OP2  DG A  26     101.577  93.116 194.370  1.00  0.00    -0.624 OA
ATOM    548  O5'  DG A  26      99.669  91.521 194.270  1.00  0.00    -0.287 OA
ATOM    549  C5'  DG A  26      98.262  91.328 194.123  1.00  0.00     0.216 C 
ATOM    550  C4'  DG A  26      97.932  90.989 192.687  1.00  0.00     0.180 C 
ATOM    551  O4'  DG A  26      98.146  92.175 191.872  1.00  0.00    -0.353 OA
ATOM    552  C3'  DG A  26      98.807  89.911 192.057  1.00  0.00     0.198 C 
ATOM    553  C1'  DG A  26      98.797  91.819 190.666  1.00  0.00     0.262 C 
ATOM    554  N9   DG A  26     100.126  92.425 190.671  1.00  0.00    -0.293 N 
ATOM    555  C2'  DG A  26      98.806  90.294 190.582  1.00  0.00     0.199 C 
ATOM    556  C8   DG A  26     101.161  92.150 191.532  1.00  0.00     0.214 A 
ATOM    557  C4   DG A  26     100.586  93.392 189.810  1.00  0.00     0.187 A 
ATOM    558  N7   DG A  26     102.230  92.858 191.295  1.00  0.00    -0.234 NA
ATOM    559  C5   DG A  26     101.882  93.650 190.208  1.00  0.00     0.173 A 
ATOM    560  C6   DG A  26     102.631  94.626 189.503  1.00  0.00     0.292 A 
ATOM    561  N1   DG A  26     101.895  95.186 188.466  1.00  0.00    -0.153 N 
ATOM    562  O6   DG A  26     103.791  95.003 189.703  1.00  0.00    -0.265 OA
ATOM    563  C2   DG A  26     100.603  94.855 188.150  1.00  0.00     0.703 A 
ATOM    564  H1   DG A  26     102.348  95.890 187.905  1.00  0.00     0.187 HD
ATOM    565  N2   DG A  26     100.067  95.506 187.115  1.00  0.00    -0.233 N 
ATOM    566  N3   DG A  26      99.890  93.952 188.799  1.00  0.00    -0.044 NA
ATOM    567  H21  DG A  26      99.115  95.294 186.842  1.00  0.00     0.174 HD
ATOM    568  H22  DG A  26     100.599  96.196 186.605  1.00  0.00     0.174 HD
ATOM    569  O2'  DG A  26      97.618  89.867 189.945  1.00  0.00    -0.388 OA
ATOM    570 2'HO  DG A  26      97.319  89.086 190.414  1.00  0.00     0.210 HD
ATOM    571  O3'  DG A  26      98.275  88.607 192.277  1.00  0.00    -0.279 OA
ATOM    572  P    DC A  27      99.267  87.380 192.591  1.00  0.00     0.408 P 
ATOM    573  O5'  DC A  27      99.866  86.991 191.164  1.00  0.00    -0.287 OA
ATOM    574  OP1  DC A  27      98.435  86.249 193.074  1.00  0.00    -0.624 OA
ATOM    575  OP2  DC A  27     100.384  87.881 193.433  1.00  0.00    -0.624 OA
ATOM    576  C5'  DC A  27      99.228  86.019 190.334  1.00  0.00     0.216 C 
ATOM    577  C4'  DC A  27      99.250  86.467 188.890  1.00  0.00     0.180 C 
ATOM    578  O4'  DC A  27      99.500  87.898 188.831  1.00  0.00    -0.353 OA
ATOM    579  C3'  DC A  27     100.355  85.862 188.036  1.00  0.00     0.198 C 
ATOM    580  C1'  DC A  27     100.323  88.195 187.715  1.00  0.00     0.264 C 
ATOM    581  N1   DC A  27     101.585  88.777 188.202  1.00  0.00    -0.278 N 
ATOM    582  C2'  DC A  27     100.514  86.898 186.931  1.00  0.00     0.199 C 
ATOM    583  C2   DC A  27     102.479  89.323 187.275  1.00  0.00     0.352 A 
ATOM    584  C6   DC A  27     101.885  88.787 189.536  1.00  0.00     0.102 A 
ATOM    585  N3   DC A  27     103.637  89.862 187.713  1.00  0.00    -0.177 NA
ATOM    586  O2   DC A  27     102.187  89.298 186.071  1.00  0.00    -0.244 OA
ATOM    587  C4   DC A  27     103.919  89.870 189.016  1.00  0.00     0.128 A 
ATOM    588  N4   DC A  27     105.072  90.416 189.398  1.00  0.00    -0.384 N 
ATOM    589  C5   DC A  27     103.030  89.318 189.984  1.00  0.00     0.067 A 
ATOM    590  H42  DC A  27     105.694  90.805 188.703  1.00  0.00     0.157 HD
ATOM    591  H41  DC A  27     105.324  90.444 190.376  1.00  0.00     0.157 HD
ATOM    592  O2'  DC A  27      99.478  86.790 185.972  1.00  0.00    -0.388 OA
ATOM    593 2'HO  DC A  27      99.045  85.951 186.125  1.00  0.00     0.210 HD
ATOM    594  O3'  DC A  27      99.993  84.579 187.534  1.00  0.00    -0.279 OA
ATOM    595  P    DT A  28     101.141  83.530 187.124  1.00  0.00     0.408 P 
ATOM    596  OP1  DT A  28     100.473  82.242 186.805  1.00  0.00    -0.624 OA
ATOM    597  OP2  DT A  28     102.205  83.568 188.159  1.00  0.00    -0.624 OA
ATOM    598  O5'  DT A  28     101.741  84.125 185.773  1.00  0.00    -0.287 OA
ATOM    599  C5'  DT A  28     100.917  84.312 184.623  1.00  0.00     0.216 C 
ATOM    600  C4'  DT A  28     101.735  84.861 183.478  1.00  0.00     0.180 C 
ATOM    601  O4'  DT A  28     102.118  86.230 183.783  1.00  0.00    -0.353 OA
ATOM    602  C3'  DT A  28     103.057  84.154 183.213  1.00  0.00     0.198 C 
ATOM    603  C1'  DT A  28     103.428  86.478 183.302  1.00  0.00     0.264 C 
ATOM    604  C2'  DT A  28     103.870  85.241 182.522  1.00  0.00     0.199 C 
ATOM    605  N1   DT A  28     104.294  86.791 184.448  1.00  0.00    -0.280 N 
ATOM    606  O2'  DT A  28     103.475  85.393 181.171  1.00  0.00    -0.388 OA
ATOM    607 2'HO  DT A  28     102.880  84.670 180.971  1.00  0.00     0.210 HD
ATOM    608  C2   DT A  28     105.434  87.537 184.208  1.00  0.00     0.331 A 
ATOM    609  C6   DT A  28     103.985  86.358 185.718  1.00  0.00     0.104 A 
ATOM    610  N3   DT A  28     106.199  87.797 185.315  1.00  0.00    -0.275 N 
ATOM    611  O2   DT A  28     105.743  87.938 183.101  1.00  0.00    -0.246 OA
ATOM    612  C4   DT A  28     105.948  87.400 186.608  1.00  0.00     0.250 A 
ATOM    613  H3   DT A  28     107.035  88.339 185.157  1.00  0.00     0.173 HD
ATOM    614  O4   DT A  28     106.732  87.720 187.501  1.00  0.00    -0.268 OA
ATOM    615  C5   DT A  28     104.755  86.633 186.775  1.00  0.00     0.092 A 
ATOM    616  O3'  DT A  28     102.887  82.997 182.399  1.00  0.00    -0.279 OA
ATOM    617  P    DT A  29     104.017  81.853 182.392  1.00  0.00     0.408 P 
ATOM    618  OP1  DT A  29     103.512  80.733 181.558  1.00  0.00    -0.624 OA
ATOM    619  OP2  DT A  29     104.433  81.593 183.795  1.00  0.00    -0.624 OA
ATOM    620  O5'  DT A  29     105.246  82.526 181.631  1.00  0.00    -0.287 OA
ATOM    621  C5'  DT A  29     105.098  83.036 180.306  1.00  0.00     0.216 C 
ATOM    622  C4'  DT A  29     106.416  83.580 179.805  1.00  0.00     0.180 C 
ATOM    623  C3'  DT A  29     107.641  82.734 180.112  1.00  0.00     0.198 C 
ATOM    624  O4'  DT A  29     106.696  84.844 180.463  1.00  0.00    -0.353 OA
ATOM    625  O3'  DT A  29     107.796  81.666 179.183  1.00  0.00    -0.279 OA
ATOM    626  C2'  DT A  29     108.763  83.760 180.020  1.00  0.00     0.199 C 
ATOM    627  P    DC A  30     108.575  80.329 179.624  1.00  0.00     0.408 P 
ATOM    628  OP1  DC A  30     108.443  79.351 178.515  1.00  0.00    -0.624 OA
ATOM    629  O5'  DC A  30     110.100  80.783 179.705  1.00  0.00    -0.287 OA
ATOM    630  OP2  DC A  30     108.133  79.953 180.990  1.00  0.00    -0.624 OA
ATOM    631  C5'  DC A  30     110.744  81.402 178.593  1.00  0.00     0.216 C 
ATOM    632  C4'  DC A  30     112.074  81.979 179.016  1.00  0.00     0.180 C 
ATOM    633  O4'  DC A  30     111.848  83.089 179.925  1.00  0.00    -0.353 OA
ATOM    634  C3'  DC A  30     112.973  81.041 179.806  1.00  0.00     0.198 C 
ATOM    635  C1'  DC A  30     112.888  83.132 180.889  1.00  0.00     0.264 C 
ATOM    636  C2'  DC A  30     113.875  82.015 180.552  1.00  0.00     0.199 C 
ATOM    637  N1   DC A  30     112.290  83.002 182.230  1.00  0.00    -0.278 N 
ATOM    638  O2'  DC A  30     114.879  82.539 179.703  1.00  0.00    -0.388 OA
ATOM    639 2'HO  DC A  30     114.966  81.931 178.968  1.00  0.00     0.210 HD
ATOM    640  C2   DC A  30     112.988  83.509 183.328  1.00  0.00     0.352 A 
ATOM    641  C6   DC A  30     111.078  82.393 182.404  1.00  0.00     0.102 A 
ATOM    642  N3   DC A  30     112.452  83.393 184.564  1.00  0.00    -0.177 NA
ATOM    643  O2   DC A  30     114.084  84.055 183.143  1.00  0.00    -0.244 OA
ATOM    644  C4   DC A  30     111.268  82.803 184.723  1.00  0.00     0.128 A 
ATOM    645  N4   DC A  30     110.779  82.715 185.959  1.00  0.00    -0.384 N 
ATOM    646  C5   DC A  30     110.532  82.277 183.621  1.00  0.00     0.067 A 
ATOM    647  H42  DC A  30     111.308  83.092 186.733  1.00  0.00     0.157 HD
ATOM    648  H41  DC A  30     109.885  82.275 186.125  1.00  0.00     0.157 HD
ATOM    649  O3'  DC A  30     113.701  80.161 178.954  1.00  0.00    -0.279 OA
ATOM    650  P    DA A  31     114.191  78.733 179.511  1.00  0.00     0.408 P 
ATOM    651  OP1  DA A  31     114.686  77.952 178.350  1.00  0.00    -0.624 OA
ATOM    652  O5'  DA A  31     115.436  79.090 180.438  1.00  0.00    -0.287 OA
ATOM    653  OP2  DA A  31     113.118  78.170 180.370  1.00  0.00    -0.624 OA
ATOM    654  C5'  DA A  31     116.591  79.731 179.901  1.00  0.00     0.216 C 
ATOM    655  C4'  DA A  31     117.617  79.954 180.987  1.00  0.00     0.180 C 
ATOM    656  O4'  DA A  31     117.170  81.032 181.853  1.00  0.00    -0.353 OA
ATOM    657  C3'  DA A  31     117.838  78.785 181.936  1.00  0.00     0.198 C 
ATOM    658  C1'  DA A  31     117.549  80.756 183.191  1.00  0.00     0.262 C 
ATOM    659  N9   DA A  31     116.337  80.643 184.002  1.00  0.00    -0.294 N 
ATOM    660  C2'  DA A  31     118.390  79.479 183.174  1.00  0.00     0.199 C 
ATOM    661  C4   DA A  31     116.240  80.872 185.353  1.00  0.00     0.167 A 
ATOM    662  C8   DA A  31     115.077  80.287 183.591  1.00  0.00     0.214 A 
ATOM    663  C5   DA A  31     114.917  80.638 185.680  1.00  0.00     0.149 A 
ATOM    664  N3   DA A  31     117.223  81.244 186.189  1.00  0.00    -0.222 NA
ATOM    665  N7   DA A  31     114.190  80.272 184.556  1.00  0.00    -0.236 NA
ATOM    666  C6   DA A  31     114.555  80.805 187.029  1.00  0.00     0.155 A 
ATOM    667  N1   DA A  31     115.520  81.177 187.897  1.00  0.00    -0.222 NA
ATOM    668  C2   DA A  31     116.762  81.367 187.432  1.00  0.00     0.237 A 
ATOM    669  O2'  DT A  29     109.071  84.061 178.671  1.00  0.00    -0.388 OA
ATOM    670  C1'  DT A  29     108.095  84.981 180.654  1.00  0.00     0.264 C 
ATOM    671 2'HO  DT A  29     108.647  83.389 178.135  1.00  0.00     0.210 HD
ATOM    672  N1   DT A  29     108.360  85.114 182.094  1.00  0.00    -0.280 N 
ATOM    673  C2   DT A  29     109.499  85.799 182.480  1.00  0.00     0.331 A 
ATOM    674  C6   DT A  29     107.507  84.575 183.030  1.00  0.00     0.104 A 
ATOM    675  O2   DT A  29     110.279  86.291 181.685  1.00  0.00    -0.246 OA
ATOM    676  N3   DT A  29     109.692  85.886 183.835  1.00  0.00    -0.275 N 
ATOM    677  C4   DT A  29     108.881  85.375 184.821  1.00  0.00     0.250 A 
ATOM    678  H3   DT A  29     110.518  86.379 184.139  1.00  0.00     0.173 HD
ATOM    679  O4   DT A  29     109.192  85.535 186.001  1.00  0.00    -0.268 OA
ATOM    680  C5   DT A  29     107.726  84.683 184.344  1.00  0.00     0.092 A 
ATOM    681 2'HO  DC A  25      97.407  95.072 194.550  1.00  0.00     0.210 HD
BRANCH 540 682
ATOM    682  N1   DC A  25      99.654  97.632 191.812  1.00  0.00    -0.278 N 
ATOM    683  C2   DC A  25      98.815  97.880 190.722  1.00  0.00     0.352 A 
ATOM    684  N3   DC A  25      99.360  98.182 189.523  1.00  0.00    -0.177 NA
ATOM    685  O2   DC A  25      97.587  97.818 190.881  1.00  0.00    -0.244 OA
ATOM    686  C4   DC A  25     100.686  98.244 189.391  1.00  0.00     0.128 A 
ATOM    687  N4   DC A  25     101.177  98.549 188.189  1.00  0.00    -0.384 N 
ATOM    688  C5   DC A  25     101.566  97.997 190.484  1.00  0.00     0.067 A 
ATOM    689  H42  DC A  25     100.546  98.734 187.422  1.00  0.00     0.157 HD
ATOM    690  H41  DC A  25     102.174  98.608 188.046  1.00  0.00     0.157 HD
ATOM    691  C6   DC A  25     101.012  97.698 191.666  1.00  0.00     0.102 A 
ENDBRANCH 540 682
BRANCH 666 692
ATOM    692  N6   DA A  31     113.319  80.620 187.491  1.00  0.00    -0.382 N 
ATOM    693  H62  DA A  31     112.714  79.940 187.049  1.00  0.00     0.157 HD
ATOM    694  H61  DA A  31     112.990  81.156 188.279  1.00  0.00     0.157 HD
ENDBRANCH 666 692
BRANCH 660 695
ATOM    695  O2'  DA A  31     119.749  79.834 182.999  1.00  0.00    -0.388 OA
ATOM    696 2'HO  DA A  31     120.189  79.065 182.634  1.00  0.00     0.210 HD
ENDBRANCH 660 695
BRANCH 657 697
ATOM    697  O3'  DA A  31     118.743  77.825 181.400  1.00  0.00    -0.279 OA
BRANCH 697 698
ATOM    698  P    DA A  32     118.731  76.318 181.961  1.00  0.00     0.408 P 
ATOM    699  OP2  DA A  32     117.338  75.808 181.907  1.00  0.00    -0.624 OA
ATOM    700  OP1  DA A  32     119.810  75.578 181.257  1.00  0.00    -0.624 OA
BRANCH 698 701
ATOM    701  O5'  DA A  32     119.151  76.471 183.491  1.00  0.00    -0.287 OA
ATOM    702  C5'  DA A  32     120.444  76.957 183.849  1.00  0.00     0.216 C 
ATOM    703  C4'  DA A  32     120.505  77.247 185.332  1.00  0.00     0.180 C 
ATOM    704  C3'  DA A  32     120.355  76.047 186.252  1.00  0.00     0.198 C 
ATOM    705  O4'  DA A  32     119.391  78.086 185.718  1.00  0.00    -0.353 OA
ATOM    706  O3'  DA A  32     121.576  75.321 186.366  1.00  0.00    -0.279 OA
ATOM    707  C2'  DA A  32     119.934  76.688 187.575  1.00  0.00     0.199 C 
ATOM    708  P    DT A  33     121.542  73.733 186.620  1.00  0.00     0.408 P 
ATOM    709  OP1  DT A  33     122.896  73.330 187.077  1.00  0.00    -0.624 OA
ATOM    710  OP2  DT A  33     120.947  73.084 185.424  1.00  0.00    -0.624 OA
ATOM    711  O5'  DT A  33     120.531  73.560 187.838  1.00  0.00    -0.287 OA
ATOM    712  C5'  DT A  33     120.917  73.900 189.169  1.00  0.00     0.216 C 
ATOM    713  C4'  DT A  33     119.819  73.534 190.140  1.00  0.00     0.180 C 
ATOM    714  O4'  DT A  33     118.708  74.449 189.971  1.00  0.00    -0.353 OA
ATOM    715  C3'  DT A  33     119.200  72.160 189.936  1.00  0.00     0.198 C 
ATOM    716  C1'  DT A  33     117.492  73.774 190.240  1.00  0.00     0.264 C 
ATOM    717  N1   DT A  33     116.611  73.930 189.074  1.00  0.00    -0.280 N 
ATOM    718  C2'  DT A  33     117.824  72.317 190.574  1.00  0.00     0.199 C 
ATOM    719  C2   DT A  33     115.293  74.281 189.303  1.00  0.00     0.331 A 
ATOM    720  C6   DT A  33     117.079  73.733 187.794  1.00  0.00     0.104 A 
ATOM    721  N3   DT A  33     114.521  74.403 188.177  1.00  0.00    -0.275 N 
ATOM    722  O2   DT A  33     114.842  74.471 190.419  1.00  0.00    -0.246 OA
ATOM    723  H3   DT A  33     113.552  74.647 188.322  1.00  0.00     0.173 HD
ATOM    724  C4   DT A  33     114.922  74.220 186.874  1.00  0.00     0.250 A 
ATOM    725  C5   DT A  33     116.297  73.864 186.719  1.00  0.00     0.092 A 
ATOM    726  O4   DT A  33     114.106  74.370 185.966  1.00  0.00    -0.268 OA
ATOM    727  O2'  DT A  33     117.897  72.186 191.981  1.00  0.00    -0.388 OA
ATOM    728 2'HO  DT A  33     118.634  71.607 192.173  1.00  0.00     0.210 HD
ATOM    729  O3'  DT A  33     119.979  71.142 190.557  1.00  0.00    -0.279 OA
ATOM    730  P    DG A  34     120.143  69.713 189.841  1.00  0.00     0.408 P 
ATOM    731  OP2  DG A  34     120.646  69.937 188.461  1.00  0.00    -0.624 OA
ATOM    732  OP1  DG A  34     120.903  68.835 190.766  1.00  0.00    -0.624 OA
ATOM    733  O5'  DG A  34     118.650  69.165 189.746  1.00  0.00    -0.287 OA
ATOM    734  C5'  DG A  34     118.305  68.119 188.840  1.00  0.00     0.216 C 
ATOM    735  C4'  DG A  34     117.012  67.468 189.270  1.00  0.00     0.180 C 
ATOM    736  O4'  DG A  34     117.225  66.806 190.545  1.00  0.00    -0.353 OA
ATOM    737  C3'  DG A  34     115.850  68.423 189.516  1.00  0.00     0.198 C 
ATOM    738  C1'  DG A  34     116.090  66.979 191.372  1.00  0.00     0.262 C 
ATOM    739  N9   DG A  34     116.497  67.723 192.559  1.00  0.00    -0.293 N 
ATOM    740  C2'  DG A  34     115.010  67.675 190.544  1.00  0.00     0.199 C 
ATOM    741  C8   DG A  34     117.540  68.608 192.670  1.00  0.00     0.214 A 
ATOM    742  C4   DG A  34     115.904  67.668 193.798  1.00  0.00     0.187 A 
ATOM    743  N7   DG A  34     117.663  69.114 193.866  1.00  0.00    -0.234 NA
ATOM    744  C5   DG A  34     116.633  68.527 194.591  1.00  0.00     0.173 A 
ATOM    745  C6   DG A  34     116.258  68.684 195.951  1.00  0.00     0.292 A 
ATOM    746  N1   DG A  34     115.155  67.901 196.270  1.00  0.00    -0.153 N 
ATOM    747  O6   DG A  34     116.775  69.396 196.820  1.00  0.00    -0.265 OA
ATOM    748  H1   DG A  34     114.816  67.948 197.216  1.00  0.00     0.187 HD
ATOM    749  C2   DG A  34     114.497  67.075 195.396  1.00  0.00     0.703 A 
ATOM    750  N2   DG A  34     113.453  66.405 195.893  1.00  0.00    -0.233 N 
ATOM    751  N3   DG A  34     114.834  66.918 194.131  1.00  0.00    -0.044 NA
ATOM    752  H22  DG A  34     113.185  66.515 196.860  1.00  0.00     0.174 HD
ATOM    753  H21  DG A  34     112.936  65.784 195.288  1.00  0.00     0.174 HD
ATOM    754  O2'  DG A  34     114.207  66.687 189.925  1.00  0.00    -0.388 OA
ATOM    755 2'HO  DG A  34     114.134  66.934 189.002  1.00  0.00     0.210 HD
ATOM    756  O3'  DG A  34     115.130  68.680 188.311  1.00  0.00    -0.279 OA
ATOM    757  P    DG A  35     114.341  70.070 188.130  1.00  0.00     0.408 P 
ATOM    758  OP2  DG A  35     115.280  71.187 188.406  1.00  0.00    -0.624 OA
ATOM    759  O5'  DG A  35     113.235  70.046 189.278  1.00  0.00    -0.287 OA
ATOM    760  OP1  DG A  35     113.644  70.008 186.819  1.00  0.00    -0.624 OA
ATOM    761  C5'  DG A  35     112.191  69.072 189.277  1.00  0.00     0.216 C 
ATOM    762  C4'  DG A  35     111.252  69.312 190.437  1.00  0.00     0.180 C 
ATOM    763  C3'  DG A  35     110.837  70.764 190.649  1.00  0.00     0.198 C 
ATOM    764  O4'  DG A  35     111.928  68.914 191.662  1.00  0.00    -0.353 OA
ATOM    765  C2'  DG A  35     110.668  70.860 192.162  1.00  0.00     0.199 C 
ATOM    766  O3'  DG A  35     109.627  71.063 189.956  1.00  0.00    -0.279 OA
ATOM    767  C1'  DG A  35     111.766  69.915 192.648  1.00  0.00     0.262 C 
ATOM    768  O2'  DG A  35     109.413  70.348 192.568  1.00  0.00    -0.388 OA
ATOM    769  N9   DG A  35     113.056  70.563 192.859  1.00  0.00    -0.293 N 
ATOM    770  C8   DG A  35     113.914  71.037 191.897  1.00  0.00     0.214 A 
ATOM    771  C4   DG A  35     113.655  70.819 194.069  1.00  0.00     0.187 A 
ATOM    772  N7   DG A  35     114.999  71.568 192.389  1.00  0.00    -0.234 NA
ATOM    773  C5   DG A  35     114.849  71.436 193.764  1.00  0.00     0.173 A 
ATOM    774  C6   DG A  35     115.706  71.829 194.825  1.00  0.00     0.292 A 
ATOM    775  N1   DG A  35     115.164  71.508 196.063  1.00  0.00    -0.153 N 
ATOM    776  O6   DG A  35     116.806  72.387 194.764  1.00  0.00    -0.265 OA
ATOM    777  C2   DG A  35     113.957  70.889 196.259  1.00  0.00     0.703 A 
ATOM    778  H1   DG A  35     115.708  71.752 196.876  1.00  0.00     0.187 HD
ATOM    779  N2   DG A  35     113.610  70.664 197.529  1.00  0.00    -0.233 N 
ATOM    780  N3   DG A  35     113.150  70.515 195.284  1.00  0.00    -0.044 NA
ATOM    781  H22  DG A  35     114.216  70.954 198.282  1.00  0.00     0.174 HD
ATOM    782  H21  DG A  35     112.729  70.211 197.727  1.00  0.00     0.174 HD
ATOM    783 2'HO  DG A  35     108.955  70.074 191.773  1.00  0.00     0.210 HD
ATOM    784  P    DC A  36     109.294  72.583 189.543  1.00  0.00     0.408 P 
ATOM    785  O5'  DC A  36     108.170  73.030 190.580  1.00  0.00    -0.287 OA
ATOM    786  OP2  DC A  36     110.499  73.421 189.772  1.00  0.00    -0.624 OA
ATOM    787  OP1  DC A  36     108.678  72.541 188.193  1.00  0.00    -0.624 OA
ATOM    788  C5'  DC A  36     107.591  74.335 190.517  1.00  0.00     0.216 C 
ATOM    789  C4'  DC A  36     106.750  74.597 191.745  1.00  0.00     0.180 C 
ATOM    790  C3'  DC A  36     107.334  74.084 193.060  1.00  0.00     0.198 C 
ATOM    791  O4'  DC A  36     105.474  73.914 191.584  1.00  0.00    -0.353 OA
ATOM    792  O3'  DC A  36     107.056  74.980 194.134  1.00  0.00    -0.279 OA
ATOM    793  C2'  DC A  36     106.644  72.737 193.249  1.00  0.00     0.199 C 
ATOM    794  P    DA A  37     108.187  76.012 194.628  1.00  0.00     0.408 P 
ATOM    795  OP2  DA A  37     108.807  76.646 193.437  1.00  0.00    -0.624 OA
ATOM    796  OP1  DA A  37     107.566  76.865 195.672  1.00  0.00    -0.624 OA
ATOM    797  O5'  DA A  37     109.278  75.086 195.327  1.00  0.00    -0.287 OA
ATOM    798  C5'  DA A  37     108.905  74.126 196.316  1.00  0.00     0.216 C 
ATOM    799  C4'  DA A  37     109.951  74.064 197.405  1.00  0.00     0.180 C 
ATOM    800  C3'  DA A  37     110.663  75.380 197.699  1.00  0.00     0.198 C 
ATOM    801  O4'  DA A  37     111.001  73.148 196.986  1.00  0.00    -0.353 OA
ATOM    802  O3'  DA A  37     109.981  76.133 198.700  1.00  0.00    -0.279 OA
ATOM    803  C2'  DA A  37     112.041  74.924 198.161  1.00  0.00     0.199 C 
ATOM    804  P    DT A  38     110.067  77.739 198.688  1.00  0.00     0.408 P 
ATOM    805  O5'  DT A  38     111.586  78.043 198.318  1.00  0.00    -0.287 OA
ATOM    806  OP1  DT A  38     109.819  78.208 200.075  1.00  0.00    -0.624 OA
ATOM    807  OP2  DT A  38     109.216  78.243 197.581  1.00  0.00    -0.624 OA
ATOM    808  C5'  DT A  38     112.612  77.989 199.309  1.00  0.00     0.216 C 
ATOM    809  C4'  DT A  38     113.933  78.413 198.711  1.00  0.00     0.180 C 
ATOM    810  C3'  DT A  38     113.938  79.788 198.060  1.00  0.00     0.198 C 
ATOM    811  O4'  DT A  38     114.281  77.502 197.636  1.00  0.00    -0.353 OA
ATOM    812  C2'  DT A  38     115.067  79.672 197.042  1.00  0.00     0.199 C 
ATOM    813  O3'  DT A  38     114.169  80.813 199.023  1.00  0.00    -0.279 OA
ATOM    814  O2'  DT A  38     116.330  79.843 197.656  1.00  0.00    -0.388 OA
ATOM    815  C1'  DT A  38     114.935  78.214 196.599  1.00  0.00     0.264 C 
ATOM    816 2'HO  DT A  38     116.512  80.785 197.661  1.00  0.00     0.210 HD
ATOM    817  N1   DT A  38     114.163  78.037 195.360  1.00  0.00    -0.280 N 
ATOM    818  C6   DT A  38     112.804  77.814 195.389  1.00  0.00     0.104 A 
ATOM    819  C2   DT A  38     114.848  78.099 194.160  1.00  0.00     0.331 A 
ATOM    820  C5   DT A  38     112.083  77.644 194.276  1.00  0.00     0.092 A 
ATOM    821  C4   DT A  38     112.720  77.689 192.998  1.00  0.00     0.250 A 
ATOM    822  N3   DT A  38     114.076  77.916 193.042  1.00  0.00    -0.275 N 
ATOM    823  O4   DT A  38     112.168  77.550 191.907  1.00  0.00    -0.268 OA
ATOM    824  H3   DT A  38     114.555  77.944 192.154  1.00  0.00     0.173 HD
ATOM    825  O2   DT A  38     116.047  78.301 194.090  1.00  0.00    -0.246 OA
ATOM    826  P    DT A  39     113.888  82.349 198.639  1.00  0.00     0.408 P 
ATOM    827  OP1  DT A  39     113.958  83.136 199.896  1.00  0.00    -0.624 OA
ATOM    828  OP2  DT A  39     112.660  82.410 197.804  1.00  0.00    -0.624 OA
ATOM    829  O5'  DT A  39     115.136  82.753 197.734  1.00  0.00    -0.287 OA
ATOM    830  C5'  DT A  39     114.955  83.323 196.440  1.00  0.00     0.216 C 
ATOM    831  C4'  DT A  39     116.247  83.262 195.660  1.00  0.00     0.180 C 
ATOM    832  C3'  DT A  39     116.363  84.258 194.516  1.00  0.00     0.198 C 
ATOM    833  O4'  DT A  39     116.352  81.957 195.025  1.00  0.00    -0.353 OA
ATOM    834  O3'  DT A  39     116.859  85.516 194.966  1.00  0.00    -0.279 OA
ATOM    835  C2'  DT A  39     117.324  83.553 193.568  1.00  0.00     0.199 C 
ATOM    836  P    DG A  40     116.353  86.873 194.264  1.00  0.00     0.408 P 
ATOM    837  OP1  DG A  40     116.871  88.007 195.072  1.00  0.00    -0.624 OA
ATOM    838  O5'  DG A  40     117.106  86.883 192.860  1.00  0.00    -0.287 OA
ATOM    839  OP2  DG A  40     114.894  86.760 194.010  1.00  0.00    -0.624 OA
ATOM    840  C5'  DG A  40     118.529  86.833 192.790  1.00  0.00     0.216 C 
ATOM    841  C4'  DG A  40     118.981  86.918 191.353  1.00  0.00     0.180 C 
ATOM    842  O4'  DG A  40     118.712  85.648 190.700  1.00  0.00    -0.353 OA
ATOM    843  C3'  DG A  40     118.254  87.950 190.502  1.00  0.00     0.198 C 
ATOM    844  C1'  DG A  40     118.257  85.877 189.378  1.00  0.00     0.262 C 
ATOM    845  C2'  DG A  40     118.388  87.373 189.098  1.00  0.00     0.199 C 
ATOM    846  N9   DG A  40     116.890  85.378 189.267  1.00  0.00    -0.293 N 
ATOM    847  O2'  DG A  40     119.675  87.625 188.565  1.00  0.00    -0.388 OA
ATOM    848 2'HO  DG A  40     120.053  88.335 189.084  1.00  0.00     0.210 HD
ATOM    849  C8   DG A  40     116.014  85.118 190.292  1.00  0.00     0.214 A 
ATOM    850  C4   DG A  40     116.225  85.075 188.104  1.00  0.00     0.187 A 
ATOM    851  N7   DG A  40     114.857  84.674 189.881  1.00  0.00    -0.234 NA
ATOM    852  C5   DG A  40     114.975  84.643 188.497  1.00  0.00     0.173 A 
ATOM    853  C6   DG A  40     114.043  84.252 187.501  1.00  0.00     0.292 A 
ATOM    854  N1   DG A  40     114.579  84.376 186.224  1.00  0.00    -0.153 N 
ATOM    855  O6   DG A  40     112.887  83.840 187.644  1.00  0.00    -0.265 OA
ATOM    856  C2   DG A  40     115.845  84.821 185.940  1.00  0.00     0.703 A 
ATOM    857  H1   DG A  40     113.988  84.120 185.448  1.00  0.00     0.187 HD
ATOM    858  N3   DG A  40     116.722  85.190 186.855  1.00  0.00    -0.044 NA
ATOM    859  N2   DG A  40     116.178  84.873 184.648  1.00  0.00    -0.233 N 
ATOM    860  H21  DG A  40     117.098  85.194 184.388  1.00  0.00     0.174 HD
ATOM    861  H22  DG A  40     115.516  84.593 183.937  1.00  0.00     0.174 HD
ATOM    862  O3'  DG A  40     118.848  89.239 190.622  1.00  0.00    -0.279 OA
ATOM    863  P    DA A  41     117.990  90.550 190.257  1.00  0.00     0.408 P 
ATOM    864  OP2  DA A  41     116.668  90.451 190.927  1.00  0.00    -0.624 OA
ATOM    865  OP1  DA A  41     118.856  91.729 190.515  1.00  0.00    -0.624 OA
ATOM    866  O5'  DA A  41     117.761  90.436 188.685  1.00  0.00    -0.287 OA
ATOM    867  C5'  DA A  41     118.861  90.473 187.776  1.00  0.00     0.216 C 
ATOM    868  C4'  DA A  41     118.359  90.602 186.357  1.00  0.00     0.180 C 
ATOM    869  C3'  DA A  41     117.222  91.595 186.163  1.00  0.00     0.198 C 
ATOM    870  O4'  DA A  41     117.814  89.324 185.934  1.00  0.00    -0.353 OA
ATOM    871  O3'  DA A  41     117.723  92.912 185.948  1.00  0.00    -0.279 OA
ATOM    872  C2'  DA A  41     116.490  91.038 184.947  1.00  0.00     0.199 C 
ATOM    873  P    DA A  42     116.722  94.168 185.995  1.00  0.00     0.408 P 
ATOM    874  O5'  DA A  42     115.939  94.086 184.609  1.00  0.00    -0.287 OA
ATOM    875  OP1  DA A  42     117.554  95.397 185.979  1.00  0.00    -0.624 OA
ATOM    876  OP2  DA A  42     115.751  93.955 187.100  1.00  0.00    -0.624 OA
ATOM    877  C5'  DA A  42     114.520  94.223 184.554  1.00  0.00     0.216 C 
ATOM    878  C4'  DA A  42     113.996  93.682 183.246  1.00  0.00     0.180 C 
ATOM    879  C3'  DA A  42     112.528  93.981 182.966  1.00  0.00     0.198 C 
ATOM    880  O4'  DA A  42     114.091  92.229 183.272  1.00  0.00    -0.353 OA
ATOM    881  O3'  DA A  42     112.367  95.218 182.276  1.00  0.00    -0.279 OA
ATOM    882  C2'  DA A  42     112.099  92.782 182.130  1.00  0.00     0.199 C 
ATOM    883  P    DG A  43     111.150  96.197 182.660  1.00  0.00     0.408 P 
ATOM    884  O5'  DG A  43     109.903  95.578 181.884  1.00  0.00    -0.287 OA
ATOM    885  OP1  DG A  43     111.450  97.525 182.065  1.00  0.00    -0.624 OA
ATOM    886  OP2  DG A  43     110.902  96.086 184.120  1.00  0.00    -0.624 OA
ATOM    887  C5'  DG A  43     109.961  95.339 180.479  1.00  0.00     0.216 C 
ATOM    888  C4'  DG A  43     108.784  94.497 180.042  1.00  0.00     0.180 C 
ATOM    889  C3'  DG A  43     107.414  95.005 180.471  1.00  0.00     0.198 C 
ATOM    890  O4'  DG A  43     108.887  93.184 180.654  1.00  0.00    -0.353 OA
ATOM    891  O3'  DG A  43     106.913  95.988 179.569  1.00  0.00    -0.279 OA
ATOM    892  C2'  DG A  43     106.580  93.730 180.467  1.00  0.00     0.199 C 
ATOM    893  P    DA A  44     105.936  97.147 180.110  1.00  0.00     0.408 P 
ATOM    894  OP1  DA A  44     105.745  98.111 178.996  1.00  0.00    -0.624 OA
ATOM    895  OP2  DA A  44     106.449  97.630 181.417  1.00  0.00    -0.624 OA
ATOM    896  O5'  DA A  44     104.551  96.400 180.362  1.00  0.00    -0.287 OA
ATOM    897  C5'  DA A  44     103.782  95.888 179.274  1.00  0.00     0.216 C 
ATOM    898  C4'  DA A  44     102.614  95.082 179.794  1.00  0.00     0.180 C 
ATOM    899  C3'  DA A  44     101.679  95.823 180.741  1.00  0.00     0.198 C 
ATOM    900  O4'  DA A  44     103.126  93.966 180.574  1.00  0.00    -0.353 OA
ATOM    901  O3'  DA A  44     100.663  96.524 180.027  1.00  0.00    -0.279 OA
ATOM    902  C2'  DA A  44     101.111  94.699 181.600  1.00  0.00     0.199 C 
ATOM    903  P    DG A  45      99.983  97.829 180.679  1.00  0.00     0.408 P 
ATOM    904  OP1  DG A  45      98.735  98.095 179.921  1.00  0.00    -0.624 OA
ATOM    905  OP2  DG A  45     101.018  98.888 180.787  1.00  0.00    -0.624 OA
ATOM    906  O5'  DG A  45      99.587  97.363 182.152  1.00  0.00    -0.287 OA
ATOM    907  C5'  DG A  45      98.303  96.806 182.424  1.00  0.00     0.216 C 
ATOM    908  C4'  DG A  45      98.289  96.180 183.798  1.00  0.00     0.180 C 
ATOM    909  O4'  DG A  45      97.673  97.110 184.731  1.00  0.00    -0.353 OA
ATOM    910  C3'  DG A  45      97.461  94.908 183.919  1.00  0.00     0.198 C 
ATOM    911  C1'  DG A  45      96.846  96.403 185.638  1.00  0.00     0.262 C 
ATOM    912  N9   DG A  45      95.468  96.848 185.445  1.00  0.00    -0.293 N 
ATOM    913  C2'  DG A  45      97.054  94.909 185.388  1.00  0.00     0.199 C 
ATOM    914  C8   DG A  45      94.743  97.671 186.271  1.00  0.00     0.214 A 
ATOM    915  C4   DG A  45      94.639  96.522 184.398  1.00  0.00     0.187 A 
ATOM    916  N7   DG A  45      93.531  97.894 185.841  1.00  0.00    -0.234 NA
ATOM    917  C5   DG A  45      93.450  97.173 184.657  1.00  0.00     0.173 A 
ATOM    918  C6   DG A  45      92.377  97.025 183.740  1.00  0.00     0.292 A 
ATOM    919  O6   DG A  45      91.243  97.512 183.792  1.00  0.00    -0.265 OA
ATOM    920  N1   DG A  45      92.725  96.205 182.673  1.00  0.00    -0.153 N 
ATOM    921  H1   DG A  45      92.022  96.043 181.968  1.00  0.00     0.187 HD
ATOM    922  C2   DG A  45      93.946  95.603 182.510  1.00  0.00     0.703 A 
ATOM    923  N2   DG A  45      94.090  94.848 181.418  1.00  0.00    -0.233 N 
ATOM    924  N3   DG A  45      94.952  95.729 183.354  1.00  0.00    -0.044 NA
ATOM    925  H22  DG A  45      93.330  94.738 180.764  1.00  0.00     0.174 HD
ATOM    926  H21  DG A  45      94.974  94.385 181.261  1.00  0.00     0.174 HD
ATOM    927  O2'  DG A  45      98.108  94.452 186.213  1.00  0.00    -0.388 OA
ATOM    928 2'HO  DG A  45      98.050  93.496 186.233  1.00  0.00     0.210 HD
ATOM    929  O3'  DG A  45      98.211  93.751 183.564  1.00  0.00    -0.279 OA
ATOM    930  P    DG A  46      97.448  92.445 183.016  1.00  0.00     0.408 P 
ATOM    931  OP2  DG A  46      96.944  92.738 181.649  1.00  0.00    -0.624 OA
ATOM    932  O5'  DG A  46      96.189  92.304 183.984  1.00  0.00    -0.287 OA
ATOM    933  OP1  DG A  46      98.342  91.279 183.235  1.00  0.00    -0.624 OA
ATOM    934  C5'  DG A  46      95.615  91.028 184.270  1.00  0.00     0.216 C 
ATOM    935  C4'  DG A  46      95.687  90.743 185.753  1.00  0.00     0.180 C 
ATOM    936  O4'  DG A  46      95.710  91.994 186.479  1.00  0.00    -0.353 OA
ATOM    937  C3'  DG A  46      94.487  90.008 186.333  1.00  0.00     0.198 C 
ATOM    938  C1'  DG A  46      95.163  91.798 187.766  1.00  0.00     0.262 C 
ATOM    939  N9   DG A  46      94.254  92.905 188.050  1.00  0.00    -0.293 N 
ATOM    940  C2'  DG A  46      94.486  90.423 187.806  1.00  0.00     0.199 C 
ATOM    941  C4   DG A  46      93.376  93.496 187.173  1.00  0.00     0.187 A 
ATOM    942  C8   DG A  46      94.103  93.561 189.246  1.00  0.00     0.214 A 
ATOM    943  C5   DG A  46      92.742  94.482 187.898  1.00  0.00     0.173 A 
ATOM    944  N3   DG A  46      93.199  93.157 185.880  1.00  0.00    -0.044 NA
ATOM    945  N7   DG A  46      93.210  94.512 189.205  1.00  0.00    -0.234 NA
ATOM    946  C6   DG A  46      91.759  95.280 187.254  1.00  0.00     0.292 A 
ATOM    947  N1   DG A  46      91.594  94.910 185.925  1.00  0.00    -0.153 N 
ATOM    948  O6   DG A  46      91.085  96.203 187.722  1.00  0.00    -0.265 OA
ATOM    949  H1   DG A  46      90.912  95.423 185.390  1.00  0.00     0.187 HD
ATOM    950  C2   DG A  46      92.283  93.906 185.295  1.00  0.00     0.703 A 
ATOM    951  N2   DG A  46      91.986  93.703 184.010  1.00  0.00    -0.233 N 
ATOM    952  H22  DG A  46      91.278  94.257 183.554  1.00  0.00     0.174 HD
ATOM    953  H21  DG A  46      92.473  92.972 183.510  1.00  0.00     0.174 HD
ATOM    954  O2'  DG A  46      95.291  89.554 188.580  1.00  0.00    -0.388 OA
ATOM    955 2'HO  DG A  46      96.197  89.659 188.283  1.00  0.00     0.210 HD
ATOM    956  O3'  DG A  46      94.620  88.595 186.186  1.00  0.00    -0.279 OA
ATOM    957  P    DT A  47      94.139  87.878 184.829  1.00  0.00     0.408 P 
ATOM    958  OP2  DT A  47      95.245  87.950 183.841  1.00  0.00    -0.624 OA
ATOM    959  O5'  DT A  47      92.947  88.795 184.302  1.00  0.00    -0.287 OA
ATOM    960  OP1  DT A  47      93.574  86.555 185.201  1.00  0.00    -0.624 OA
ATOM    961  C5'  DT A  47      91.649  88.730 184.892  1.00  0.00     0.216 C 
ATOM    962  C4'  DT A  47      90.695  89.638 184.152  1.00  0.00     0.180 C 
ATOM    963  O4'  DT A  47      91.375  90.889 183.845  1.00  0.00    -0.353 OA
ATOM    964  C3'  DT A  47      90.212  89.112 182.806  1.00  0.00     0.198 C 
ATOM    965  C1'  DT A  47      91.074  91.287 182.520  1.00  0.00     0.264 C 
ATOM    966  N1   DT A  47      92.302  91.189 181.717  1.00  0.00    -0.280 N 
ATOM    967  C2'  DT A  47      89.938  90.392 182.028  1.00  0.00     0.199 C 
ATOM    968  C2   DT A  47      92.592  92.225 180.848  1.00  0.00     0.331 A 
ATOM    969  C6   DT A  47      93.137  90.099 181.824  1.00  0.00     0.104 A 
ATOM    970  O2   DT A  47      91.886  93.211 180.730  1.00  0.00    -0.246 OA
ATOM    971  N3   DT A  47      93.744  92.066 180.121  1.00  0.00    -0.275 N 
ATOM    972  H3   DT A  47      93.984  92.803 179.477  1.00  0.00     0.173 HD
ATOM    973  C4   DT A  47      94.617  91.004 180.173  1.00  0.00     0.250 A 
ATOM    974  O4   DT A  47      95.598  90.992 179.431  1.00  0.00    -0.268 OA
ATOM    975  C5   DT A  47      94.253  89.980 181.099  1.00  0.00     0.092 A 
ATOM    976  O2'  DT A  47      88.708  90.975 182.411  1.00  0.00    -0.388 OA
ATOM    977 2'HO  DT A  47      88.190  90.286 182.828  1.00  0.00     0.210 HD
ATOM    978  O3'  DT A  47      89.049  88.300 182.954  1.00  0.00    -0.279 OA
ATOM    979  P    DC A  48      88.629  87.282 181.781  1.00  0.00     0.408 P 
ATOM    980  O5'  DC A  48      87.812  88.191 180.759  1.00  0.00    -0.287 OA
ATOM    981  OP1  DC A  48      87.691  86.292 182.369  1.00  0.00    -0.624 OA
ATOM    982  OP2  DC A  48      89.859  86.809 181.097  1.00  0.00    -0.624 OA
ATOM    983  C5'  DC A  48      86.622  88.865 181.165  1.00  0.00     0.216 C 
ATOM    984  C4'  DC A  48      86.155  89.803 180.077  1.00  0.00     0.180 C 
ATOM    985  O4'  DC A  48      87.161  90.832 179.873  1.00  0.00    -0.353 OA
ATOM    986  C3'  DC A  48      85.978  89.174 178.703  1.00  0.00     0.198 C 
ATOM    987  C1'  DC A  48      87.253  91.145 178.493  1.00  0.00     0.264 C 
ATOM    988  C2'  DC A  48      86.145  90.373 177.777  1.00  0.00     0.199 C 
ATOM    989  N1   DC A  48      88.608  90.804 178.029  1.00  0.00    -0.278 N 
ATOM    990  O2'  DC A  48      84.977  91.170 177.759  1.00  0.00    -0.388 OA
ATOM    991 2'HO  DC A  48      84.282  90.646 178.160  1.00  0.00     0.210 HD
ATOM    992  C2   DC A  48      89.155  91.517 176.958  1.00  0.00     0.352 A 
ATOM    993  C6   DC A  48      89.327  89.810 178.634  1.00  0.00     0.102 A 
ATOM    994  O2   DC A  48      88.482  92.408 176.422  1.00  0.00    -0.244 OA
ATOM    995  N3   DC A  48      90.402  91.217 176.532  1.00  0.00    -0.177 NA
ATOM    996  C4   DC A  48      91.097  90.250 177.132  1.00  0.00     0.128 A 
ATOM    997  C5   DC A  48      90.564  89.504 178.224  1.00  0.00     0.067 A 
ATOM    998  N4   DC A  48      92.324  89.991 176.679  1.00  0.00    -0.384 N 
ATOM    999  H41  DC A  48      92.882  89.267 177.107  1.00  0.00     0.157 HD
ATOM   1000  H42  DC A  48      92.695  90.524 175.906  1.00  0.00     0.157 HD
ATOM   1001  O3'  DC A  48      84.703  88.554 178.569  1.00  0.00    -0.279 OA
ATOM   1002  P    DA A  49      84.490  87.398 177.471  1.00  0.00     0.408 P 
ATOM   1003  O5'  DA A  49      84.731  88.138 176.082  1.00  0.00    -0.287 OA
ATOM   1004  OP1  DA A  49      83.064  86.985 177.537  1.00  0.00    -0.624 OA
ATOM   1005  OP2  DA A  49      85.556  86.380 177.649  1.00  0.00    -0.624 OA
ATOM   1006  C5'  DA A  49      83.925  89.251 175.693  1.00  0.00     0.216 C 
ATOM   1007  C4'  DA A  49      84.348  89.751 174.331  1.00  0.00     0.180 C 
ATOM   1008  O4'  DA A  49      85.559  90.537 174.460  1.00  0.00    -0.353 OA
ATOM   1009  C3'  DA A  49      84.727  88.678 173.324  1.00  0.00     0.198 C 
ATOM   1010  C1'  DA A  49      86.324  90.421 173.272  1.00  0.00     0.262 C 
ATOM   1011  C2'  DA A  49      85.596  89.451 172.338  1.00  0.00     0.199 C 
ATOM   1012  N9   DA A  49      87.673  89.983 173.633  1.00  0.00    -0.294 N 
ATOM   1013  O2'  DA A  49      84.807  90.203 171.435  1.00  0.00    -0.388 OA
ATOM   1014 2'HO  DA A  49      84.564  89.614 170.720  1.00  0.00     0.210 HD
ATOM   1015  C4   DA A  49      88.827  90.266 172.944  1.00  0.00     0.167 A 
ATOM   1016  C8   DA A  49      88.055  89.214 174.705  1.00  0.00     0.214 A 
ATOM   1017  N3   DA A  49      88.948  90.992 171.819  1.00  0.00    -0.222 NA
ATOM   1018  C5   DA A  49      89.847  89.650 173.647  1.00  0.00     0.149 A 
ATOM   1019  C2   DA A  49      90.221  91.054 171.435  1.00  0.00     0.237 A 
ATOM   1020  N1   DA A  49      91.306  90.514 172.006  1.00  0.00    -0.222 NA
ATOM   1021  C6   DA A  49      91.149  89.791 173.135  1.00  0.00     0.155 A 
ATOM   1022  N6   DA A  49      92.230  89.254 173.703  1.00  0.00    -0.382 N 
ATOM   1023  H62  DA A  49      93.143  89.392 173.291  1.00  0.00     0.157 HD
ATOM   1024  H61  DA A  49      92.135  88.710 174.547  1.00  0.00     0.157 HD
ATOM   1025  N7   DA A  49      89.346  88.988 174.759  1.00  0.00    -0.236 NA
ATOM   1026  O3'  DA A  49      83.576  88.103 172.711  1.00  0.00    -0.279 OA
ATOM   1027  P    DG A  50      83.566  86.539 172.329  1.00  0.00     0.408 P 
ATOM   1028  O5'  DG A  50      84.038  86.511 170.808  1.00  0.00    -0.287 OA
ATOM   1029  OP1  DG A  50      82.154  86.084 172.379  1.00  0.00    -0.624 OA
ATOM   1030  OP2  DG A  50      84.591  85.834 173.142  1.00  0.00    -0.624 OA
ATOM   1031  C5'  DG A  50      83.203  87.020 169.769  1.00  0.00     0.216 C 
ATOM   1032  C4'  DG A  50      84.045  87.493 168.607  1.00  0.00     0.180 C 
ATOM   1033  O4'  DG A  50      85.027  88.453 169.091  1.00  0.00    -0.353 OA
ATOM   1034  C3'  DG A  50      84.878  86.422 167.917  1.00  0.00     0.198 C 
ATOM   1035  C1'  DG A  50      86.265  88.243 168.432  1.00  0.00     0.262 C 
ATOM   1036  N9   DG A  50      87.239  87.780 169.414  1.00  0.00    -0.293 N 
ATOM   1037  C2'  DG A  50      86.009  87.239 167.311  1.00  0.00     0.199 C 
ATOM   1038  C4   DG A  50      88.580  88.080 169.446  1.00  0.00     0.187 A 
ATOM   1039  C8   DG A  50      87.002  86.957 170.487  1.00  0.00     0.214 A 
ATOM   1040  N3   DG A  50      89.239  88.864 168.566  1.00  0.00    -0.044 NA
ATOM   1041  C5   DG A  50      89.078  87.413 170.545  1.00  0.00     0.173 A 
ATOM   1042  C2   DG A  50      90.523  88.961 168.859  1.00  0.00     0.703 A 
ATOM   1043  N2   DG A  50      91.324  89.699 168.087  1.00  0.00    -0.233 N 
ATOM   1044  N1   DG A  50      91.116  88.340 169.929  1.00  0.00    -0.153 N 
ATOM   1045  H22  DG A  50      92.306  89.792 168.305  1.00  0.00     0.174 HD
ATOM   1046  H21  DG A  50      90.933  90.176 167.286  1.00  0.00     0.174 HD
ATOM   1047  H1   DG A  50      92.105  88.479 170.071  1.00  0.00     0.187 HD
ATOM   1048  C6   DG A  50      90.459  87.527 170.845  1.00  0.00     0.292 A 
ATOM   1049  O6   DG A  50      91.092  87.013 171.773  1.00  0.00    -0.265 OA
ATOM   1050  N7   DG A  50      88.072  86.709 171.192  1.00  0.00    -0.234 NA
ATOM   1051  O2'  DG A  50      85.576  87.940 166.159  1.00  0.00    -0.388 OA
ATOM   1052 2'HO  DG A  50      84.820  87.465 165.814  1.00  0.00     0.210 HD
ATOM   1053  O3'  DG A  50      84.126  85.711 166.937  1.00  0.00    -0.279 OA
ATOM   1054  P    DC A  51      84.517  84.192 166.579  1.00  0.00     0.408 P 
ATOM   1055  OP1  DC A  51      83.624  83.752 165.476  1.00  0.00    -0.624 OA
ATOM   1056  OP2  DC A  51      84.564  83.410 167.841  1.00  0.00    -0.624 OA
ATOM   1057  O5'  DC A  51      86.000  84.301 166.006  1.00  0.00    -0.287 OA
ATOM   1058  C5'  DC A  51      86.267  85.012 164.799  1.00  0.00     0.216 C 
ATOM   1059  C4'  DC A  51      87.748  85.288 164.667  1.00  0.00     0.180 C 
ATOM   1060  C3'  DC A  51      88.643  84.066 164.555  1.00  0.00     0.198 C 
ATOM   1061  O4'  DC A  51      88.237  85.937 165.867  1.00  0.00    -0.353 OA
ATOM   1062  C2'  DC A  51      90.005  84.631 164.946  1.00  0.00     0.199 C 
ATOM   1063  O3'  DC A  51      88.635  83.520 163.239  1.00  0.00    -0.279 OA
ATOM   1064  O2'  DC A  51      90.602  85.321 163.864  1.00  0.00    -0.388 OA
ATOM   1065  C1'  DC A  51      89.618  85.651 166.020  1.00  0.00     0.264 C 
ATOM   1066 2'HO  DC A  51      90.153  85.029 163.070  1.00  0.00     0.210 HD
ATOM   1067  N1   DC A  51      89.853  85.169 167.391  1.00  0.00    -0.278 N 
ATOM   1068  C6   DC A  51      88.810  84.859 168.220  1.00  0.00     0.102 A 
ATOM   1069  C2   DC A  51      91.170  85.029 167.834  1.00  0.00     0.352 A 
ATOM   1070  C5   DC A  51      89.027  84.418 169.467  1.00  0.00     0.067 A 
ATOM   1071  C4   DC A  51      90.381  84.280 169.887  1.00  0.00     0.128 A 
ATOM   1072  N4   DC A  51      90.663  83.846 171.114  1.00  0.00    -0.384 N 
ATOM   1073  N3   DC A  51      91.404  84.579 169.085  1.00  0.00    -0.177 NA
ATOM   1074  H42  DC A  51      91.626  83.761 171.408  1.00  0.00     0.157 HD
ATOM   1075  H41  DC A  51      89.916  83.611 171.751  1.00  0.00     0.157 HD
ATOM   1076  O2   DC A  51      92.097  85.324 167.066  1.00  0.00    -0.244 OA
ATOM   1077  P    DC A  52      89.043  81.980 163.011  1.00  0.00     0.408 P 
ATOM   1078  OP1  DC A  52      88.751  81.650 161.592  1.00  0.00    -0.624 OA
ATOM   1079  O5'  DC A  52      90.624  81.967 163.211  1.00  0.00    -0.287 OA
ATOM   1080  OP2  DC A  52      88.436  81.165 164.093  1.00  0.00    -0.624 OA
ATOM   1081  C5'  DC A  52      91.488  82.616 162.280  1.00  0.00     0.216 C 
ATOM   1082  C4'  DC A  52      92.908  82.136 162.462  1.00  0.00     0.180 C 
ATOM   1083  O4'  DC A  52      93.509  82.845 163.584  1.00  0.00    -0.353 OA
ATOM   1084  C3'  DC A  52      93.066  80.663 162.819  1.00  0.00     0.198 C 
ATOM   1085  C1'  DC A  52      94.287  81.945 164.358  1.00  0.00     0.264 C 
ATOM   1086  N1   DC A  52      93.629  81.767 165.664  1.00  0.00    -0.278 N 
ATOM   1087  C2'  DC A  52      94.402  80.656 163.548  1.00  0.00     0.199 C 
ATOM   1088  C2   DC A  52      94.402  81.390 166.765  1.00  0.00     0.352 A 
ATOM   1089  C6   DC A  52      92.283  81.966 165.801  1.00  0.00     0.102 A 
ATOM   1090  N3   DC A  52      93.805  81.231 167.968  1.00  0.00    -0.177 NA
ATOM   1091  O2   DC A  52      95.618  81.208 166.614  1.00  0.00    -0.244 OA
ATOM   1092  C4   DC A  52      92.493  81.436 168.093  1.00  0.00     0.128 A 
ATOM   1093  N4   DC A  52      91.951  81.278 169.299  1.00  0.00    -0.384 N 
ATOM   1094  C5   DC A  52      91.679  81.816 166.986  1.00  0.00     0.067 A 
ATOM   1095  H42  DC A  52      92.537  81.018 170.080  1.00  0.00     0.157 HD
ATOM   1096  H41  DC A  52      90.963  81.425 169.439  1.00  0.00     0.157 HD
ATOM   1097  O2'  DC A  52      95.482  80.781 162.642  1.00  0.00    -0.388 OA
ATOM   1098 2'HO  DC A  52      95.157  80.503 161.785  1.00  0.00     0.210 HD
ATOM   1099  O3'  DC A  52      93.069  79.830 161.664  1.00  0.00    -0.279 OA
ATOM   1100  P    DC A  53      92.666  78.279 161.800  1.00  0.00     0.408 P 
ATOM   1101  OP2  DC A  53      91.419  78.186 162.602  1.00  0.00    -0.624 OA
ATOM   1102  OP1  DC A  53      92.710  77.687 160.438  1.00  0.00    -0.624 OA
ATOM   1103  O5'  DC A  53      93.853  77.646 162.656  1.00  0.00    -0.287 OA
ATOM   1104  C5'  DC A  53      95.184  77.606 162.143  1.00  0.00     0.216 C 
ATOM   1105  C4'  DC A  53      96.142  77.117 163.205  1.00  0.00     0.180 C 
ATOM   1106  O4'  DC A  53      96.151  78.049 164.320  1.00  0.00    -0.353 OA
ATOM   1107  C3'  DC A  53      95.790  75.791 163.861  1.00  0.00     0.198 C 
ATOM   1108  C1'  DC A  53      96.398  77.341 165.525  1.00  0.00     0.264 C 
ATOM   1109  N1   DC A  53      95.275  77.578 166.448  1.00  0.00    -0.278 N 
ATOM   1110  C2'  DC A  53      96.579  75.867 165.161  1.00  0.00     0.199 C 
ATOM   1111  C6   DC A  53      94.059  77.997 165.985  1.00  0.00     0.102 A 
ATOM   1112  C2   DC A  53      95.471  77.363 167.815  1.00  0.00     0.352 A 
ATOM   1113  C5   DC A  53      93.037  78.215 166.822  1.00  0.00     0.067 A 
ATOM   1114  C4   DC A  53      93.267  77.985 168.209  1.00  0.00     0.128 A 
ATOM   1115  N3   DC A  53      94.448  77.574 168.671  1.00  0.00    -0.177 NA
ATOM   1116  N4   DC A  53      92.290  78.183 169.093  1.00  0.00    -0.384 N 
ATOM   1117  H41  DC A  53      91.379  78.494 168.787  1.00  0.00     0.157 HD
ATOM   1118  H42  DC A  53      92.465  78.018 170.075  1.00  0.00     0.157 HD
ATOM   1119  O2   DC A  53      96.582  76.983 168.210  1.00  0.00    -0.244 OA
ATOM   1120  O2'  DC A  53      97.956  75.621 164.941  1.00  0.00    -0.388 OA
ATOM   1121 2'HO  DC A  53      98.022  75.137 164.117  1.00  0.00     0.210 HD
ATOM   1122  O3'  DC A  53      96.167  74.677 163.057  1.00  0.00    -0.279 OA
ATOM   1123  P    DC A  54      95.431  73.261 163.262  1.00  0.00     0.408 P 
ATOM   1124  OP2  DC A  54      93.966  73.498 163.324  1.00  0.00    -0.624 OA
ATOM   1125  O5'  DC A  54      95.915  72.779 164.702  1.00  0.00    -0.287 OA
ATOM   1126  OP1  DC A  54      95.980  72.324 162.248  1.00  0.00    -0.624 OA
ATOM   1127  C5'  DC A  54      97.282  72.455 164.944  1.00  0.00     0.216 C 
ATOM   1128  C4'  DC A  54      97.483  72.080 166.396  1.00  0.00     0.180 C 
ATOM   1129  O4'  DC A  54      97.206  73.234 167.232  1.00  0.00    -0.353 OA
ATOM   1130  C3'  DC A  54      96.550  71.007 166.936  1.00  0.00     0.198 C 
ATOM   1131  C1'  DC A  54      96.648  72.807 168.462  1.00  0.00     0.264 C 
ATOM   1132  N1   DC A  54      95.335  73.452 168.630  1.00  0.00    -0.278 N 
ATOM   1133  C2'  DC A  54      96.576  71.279 168.435  1.00  0.00     0.199 C 
ATOM   1134  C6   DC A  54      94.623  73.888 167.547  1.00  0.00     0.102 A 
ATOM   1135  C2   DC A  54      94.823  73.614 169.919  1.00  0.00     0.352 A 
ATOM   1136  C5   DC A  54      93.431  74.479 167.696  1.00  0.00     0.067 A 
ATOM   1137  C4   DC A  54      92.935  74.630 169.024  1.00  0.00     0.128 A 
ATOM   1138  N4   DC A  54      91.756  75.209 169.237  1.00  0.00    -0.384 N 
ATOM   1139  N3   DC A  54      93.619  74.203 170.085  1.00  0.00    -0.177 NA
ATOM   1140  H41  DC A  54      91.203  75.548 168.464  1.00  0.00     0.157 HD
ATOM   1141  H42  DC A  54      91.420  75.313 170.186  1.00  0.00     0.157 HD
ATOM   1142  O2   DC A  54      95.488  73.211 170.885  1.00  0.00    -0.244 OA
ATOM   1143  O2'  DC A  54      97.753  70.763 169.028  1.00  0.00    -0.388 OA
ATOM   1144 2'HO  DC A  54      98.288  70.404 168.319  1.00  0.00     0.210 HD
ATOM   1145  O3'  DC A  54      97.009  69.697 166.613  1.00  0.00    -0.279 OA
ATOM   1146  P    DC A  55      95.977  68.463 166.622  1.00  0.00     0.408 P 
ATOM   1147  OP2  DC A  55      94.735  68.881 165.924  1.00  0.00    -0.624 OA
ATOM   1148  OP1  DC A  55      96.714  67.262 166.153  1.00  0.00    -0.624 OA
ATOM   1149  O5'  DC A  55      95.631  68.257 168.165  1.00  0.00    -0.287 OA
ATOM   1150  C5'  DC A  55      96.650  67.935 169.111  1.00  0.00     0.216 C 
ATOM   1151  C4'  DC A  55      96.051  67.767 170.487  1.00  0.00     0.180 C 
ATOM   1152  C3'  DC A  55      94.737  67.003 170.543  1.00  0.00     0.182 C 
ATOM   1153  O4'  DC A  55      95.724  69.076 171.022  1.00  0.00    -0.353 OA
ATOM   1154  C2'  DC A  55      94.107  67.522 171.830  1.00  0.00     0.198 C 
ATOM   1155  O3'  DC A  55      94.936  65.585 170.564  1.00  0.00    -0.390 OA
ATOM   1156  C1'  DC A  55      94.559  68.984 171.823  1.00  0.00     0.264 C 
ATOM   1157  O2'  DC A  55      94.660  66.882 172.966  1.00  0.00    -0.388 OA
ATOM   1158  N1   DC A  55      93.552  69.913 171.285  1.00  0.00    -0.278 N 
ATOM   1159  C2   DC A  55      92.713  70.587 172.177  1.00  0.00     0.352 A 
ATOM   1160  C6   DC A  55      93.435  70.117 169.939  1.00  0.00     0.102 A 
ATOM   1161  N3   DC A  55      91.787  71.444 171.693  1.00  0.00    -0.177 NA
ATOM   1162  O2   DC A  55      92.838  70.380 173.392  1.00  0.00    -0.244 OA
ATOM   1163  C4   DC A  55      91.681  71.638 170.377  1.00  0.00     0.128 A 
ATOM   1164  N4   DC A  55      90.754  72.493 169.949  1.00  0.00    -0.384 N 
ATOM   1165  C5   DC A  55      92.522  70.963 169.445  1.00  0.00     0.067 A 
ATOM   1166  H41  DC A  55      90.638  72.669 168.963  1.00  0.00     0.157 HD
ATOM   1167  H42  DC A  55      90.170  72.967 170.624  1.00  0.00     0.157 HD
ATOM   1168 2'HO  DC A  55      94.915  66.000 172.692  1.00  0.00     0.210 HD
ATOM   1169 3'HO  DC A  55      95.522  65.371 169.835  1.00  0.00     0.210 HD
ATOM   1170  O2'  DA A  44     100.082  94.004 180.919  1.00  0.00    -0.388 OA
ATOM   1171  C1'  DA A  44     102.324  93.778 181.725  1.00  0.00     0.262 C 
ATOM   1172 2'HO  DA A  44      99.798  94.567 180.198  1.00  0.00     0.210 HD
ATOM   1173  N9   DA A  44     103.145  94.043 182.906  1.00  0.00    -0.294 N 
ATOM   1174  C4   DA A  44     102.924  93.565 184.174  1.00  0.00     0.167 A 
ATOM   1175  C8   DA A  44     104.285  94.805 182.986  1.00  0.00     0.214 A 
ATOM   1176  N3   DA A  44     101.918  92.772 184.583  1.00  0.00    -0.222 NA
ATOM   1177  C5   DA A  44     103.953  94.067 184.951  1.00  0.00     0.149 A 
ATOM   1178  C2   DA A  44     102.027  92.511 185.884  1.00  0.00     0.237 A 
ATOM   1179  N1   DA A  44     102.959  92.919 186.755  1.00  0.00    -0.222 NA
ATOM   1180  C6   DA A  44     103.956  93.713 186.310  1.00  0.00     0.155 A 
ATOM   1181  N6   DA A  44     104.885  94.115 187.177  1.00  0.00    -0.382 N 
ATOM   1182  H61  DA A  44     105.642  94.708 186.867  1.00  0.00     0.157 HD
ATOM   1183  H62  DA A  44     104.839  93.821 188.143  1.00  0.00     0.157 HD
ATOM   1184  N7   DA A  44     104.808  94.850 184.187  1.00  0.00    -0.236 NA
ATOM   1185  O2'  DG A  43     106.209  93.366 179.150  1.00  0.00    -0.388 OA
ATOM   1186  C1'  DG A  43     107.593  92.711 180.990  1.00  0.00     0.262 C 
ATOM   1187 2'HO  DG A  43     106.028  94.181 178.681  1.00  0.00     0.210 HD
ATOM   1188  N9   DG A  43     107.534  92.515 182.436  1.00  0.00    -0.293 N 
ATOM   1189  C4   DG A  43     106.521  91.908 183.138  1.00  0.00     0.187 A 
ATOM   1190  C8   DG A  43     108.472  92.896 183.363  1.00  0.00     0.214 A 
ATOM   1191  N3   DG A  43     105.392  91.386 182.612  1.00  0.00    -0.044 NA
ATOM   1192  C5   DG A  43     106.913  91.954 184.459  1.00  0.00     0.173 A 
ATOM   1193  C2   DG A  43     104.609  90.870 183.543  1.00  0.00     0.703 A 
ATOM   1194  N1   DG A  43     104.904  90.865 184.881  1.00  0.00    -0.153 N 
ATOM   1195  N2   DG A  43     103.446  90.311 183.196  1.00  0.00    -0.233 N 
ATOM   1196  H1   DG A  43     104.233  90.444 185.506  1.00  0.00     0.187 HD
ATOM   1197  C6   DG A  43     106.059  91.395 185.446  1.00  0.00     0.292 A 
ATOM   1198  O6   DG A  43     106.228  91.335 186.668  1.00  0.00    -0.265 OA
ATOM   1199  H21  DG A  43     103.178  90.290 182.223  1.00  0.00     0.174 HD
ATOM   1200  H22  DG A  43     102.839  89.915 183.900  1.00  0.00     0.174 HD
ATOM   1201  N7   DG A  43     108.147  92.580 184.586  1.00  0.00    -0.234 NA
ATOM   1202  O2'  DA A  42     112.556  92.899 180.795  1.00  0.00    -0.388 OA
ATOM   1203  C1'  DA A  42     112.875  91.663 182.820  1.00  0.00     0.262 C 
ATOM   1204 2'HO  DA A  42     112.525  93.831 180.576  1.00  0.00     0.210 HD
ATOM   1205  N9   DA A  42     112.182  91.085 183.971  1.00  0.00    -0.294 N 
ATOM   1206  C4   DA A  42     110.970  90.436 183.958  1.00  0.00     0.167 A 
ATOM   1207  C8   DA A  42     112.595  91.079 185.282  1.00  0.00     0.214 A 
ATOM   1208  N3   DA A  42     110.183  90.197 182.895  1.00  0.00    -0.222 NA
ATOM   1209  C5   DA A  42     110.720  90.078 185.272  1.00  0.00     0.149 A 
ATOM   1210  C2   DA A  42     109.081  89.547 183.265  1.00  0.00     0.237 A 
ATOM   1211  N1   DA A  42     108.706  89.137 184.484  1.00  0.00    -0.222 NA
ATOM   1212  C6   DA A  42     109.521  89.394 185.530  1.00  0.00     0.155 A 
ATOM   1213  N6   DA A  42     109.149  88.988 186.744  1.00  0.00    -0.382 N 
ATOM   1214  H61  DA A  42     109.747  89.172 187.537  1.00  0.00     0.157 HD
ATOM   1215  H62  DA A  42     108.273  88.501 186.875  1.00  0.00     0.157 HD
ATOM   1216  N7   DA A  42     111.756  90.490 186.098  1.00  0.00    -0.236 NA
ATOM   1217  O2'  DA A  41     117.143  91.397 183.743  1.00  0.00    -0.388 OA
ATOM   1218  C1'  DA A  41     116.648  89.532 185.159  1.00  0.00     0.262 C 
ATOM   1219 2'HO  DA A  41     116.675  92.153 183.389  1.00  0.00     0.210 HD
ATOM   1220  N9   DA A  41     115.520  88.912 185.854  1.00  0.00    -0.294 N 
ATOM   1221  C8   DA A  41     115.336  88.781 187.208  1.00  0.00     0.214 A 
ATOM   1222  C4   DA A  41     114.421  88.332 185.268  1.00  0.00     0.167 A 
ATOM   1223  N7   DA A  41     114.223  88.169 187.533  1.00  0.00    -0.236 NA
ATOM   1224  C5   DA A  41     113.634  87.879 186.310  1.00  0.00     0.149 A 
ATOM   1225  C6   DA A  41     112.430  87.235 185.968  1.00  0.00     0.155 A 
ATOM   1226  N6   DA A  41     111.573  86.744 186.863  1.00  0.00    -0.382 N 
ATOM   1227  N1   DA A  41     112.137  87.109 184.656  1.00  0.00    -0.222 NA
ATOM   1228  H61  DA A  41     111.776  86.826 187.848  1.00  0.00     0.157 HD
ATOM   1229  H62  DA A  41     110.723  86.291 186.556  1.00  0.00     0.157 HD
ATOM   1230  C2   DA A  41     113.000  87.599 183.756  1.00  0.00     0.237 A 
ATOM   1231  N3   DA A  41     114.160  88.222 183.954  1.00  0.00    -0.222 NA
ATOM   1232  C1'  DT A  39     116.855  82.106 193.708  1.00  0.00     0.264 C 
ATOM   1233  O2'  DT A  39     118.659  83.648 194.027  1.00  0.00    -0.388 OA
ATOM   1234  N1   DT A  39     115.795  81.733 192.760  1.00  0.00    -0.280 N 
ATOM   1235  C2   DT A  39     116.125  81.663 191.418  1.00  0.00     0.331 A 
ATOM   1236  C6   DT A  39     114.514  81.467 193.189  1.00  0.00     0.104 A 
ATOM   1237  O2   DT A  39     117.246  81.884 190.999  1.00  0.00    -0.246 OA
ATOM   1238  N3   DT A  39     115.091  81.322 190.584  1.00  0.00    -0.275 N 
ATOM   1239  C4   DT A  39     113.793  81.047 190.943  1.00  0.00     0.250 A 
ATOM   1240  H3   DT A  39     115.307  81.277 189.599  1.00  0.00     0.173 HD
ATOM   1241  O4   DT A  39     112.973  80.754 190.073  1.00  0.00    -0.268 OA
ATOM   1242  C5   DT A  39     113.532  81.137 192.346  1.00  0.00     0.092 A 
ATOM   1243 2'HO  DT A  39     118.725  84.472 194.509  1.00  0.00     0.210 HD
ATOM   1244  O2'  DA A  37     112.011  74.479 199.505  1.00  0.00    -0.388 OA
ATOM   1245  C1'  DA A  37     112.269  73.719 197.252  1.00  0.00     0.262 C 
ATOM   1246 2'HO  DA A  37     111.211  74.833 199.895  1.00  0.00     0.210 HD
ATOM   1247  N9   DA A  37     112.899  74.058 195.977  1.00  0.00    -0.294 N 
ATOM   1248  C8   DA A  37     112.345  74.023 194.721  1.00  0.00     0.214 A 
ATOM   1249  C4   DA A  37     114.193  74.486 195.804  1.00  0.00     0.167 A 
ATOM   1250  N7   DA A  37     113.168  74.393 193.770  1.00  0.00    -0.236 NA
ATOM   1251  C5   DA A  37     114.344  74.688 194.445  1.00  0.00     0.149 A 
ATOM   1252  C6   DA A  37     115.602  75.136 194.005  1.00  0.00     0.155 A 
ATOM   1253  N1   DA A  37     116.559  75.335 194.936  1.00  0.00    -0.222 NA
ATOM   1254  N6   DA A  37     115.900  75.371 192.729  1.00  0.00    -0.382 N 
ATOM   1255  C2   DA A  37     116.265  75.095 196.220  1.00  0.00     0.237 A 
ATOM   1256  N3   DA A  37     115.123  74.670 196.757  1.00  0.00    -0.222 NA
ATOM   1257  H62  DA A  37     116.829  75.677 192.480  1.00  0.00     0.157 HD
ATOM   1258  H61  DA A  37     115.202  75.229 192.012  1.00  0.00     0.157 HD
ATOM   1259  O2'  DC A  36     106.501  72.419 194.621  1.00  0.00    -0.388 OA
ATOM   1260  C1'  DC A  36     105.264  73.035 192.668  1.00  0.00     0.264 C 
ATOM   1261 2'HO  DC A  36     106.573  73.242 195.105  1.00  0.00     0.210 HD
ATOM   1262  N1   DC A  36     104.546  71.851 192.172  1.00  0.00    -0.278 N 
ATOM   1263  C2   DC A  36     103.355  71.470 192.797  1.00  0.00     0.352 A 
ATOM   1264  C6   DC A  36     105.033  71.131 191.116  1.00  0.00     0.102 A 
ATOM   1265  O2   DC A  36     102.935  72.141 193.751  1.00  0.00    -0.244 OA
ATOM   1266  N3   DC A  36     102.693  70.381 192.347  1.00  0.00    -0.177 NA
ATOM   1267  C4   DC A  36     103.178  69.684 191.320  1.00  0.00     0.128 A 
ATOM   1268  C5   DC A  36     104.387  70.049 190.662  1.00  0.00     0.067 A 
ATOM   1269  N4   DC A  36     102.492  68.615 190.917  1.00  0.00    -0.384 N 
ATOM   1270  H42  DC A  36     101.635  68.372 191.392  1.00  0.00     0.157 HD
ATOM   1271  H41  DC A  36     102.824  68.055 190.145  1.00  0.00     0.157 HD
ATOM   1272  C1'  DA A  32     119.149  77.916 187.102  1.00  0.00     0.262 C 
ATOM   1273  O2'  DA A  32     121.064  77.129 188.303  1.00  0.00    -0.388 OA
ATOM   1274  N9   DA A  32     117.706  77.802 187.312  1.00  0.00    -0.294 N 
ATOM   1275  C4   DA A  32     117.064  77.862 188.525  1.00  0.00     0.167 A 
ATOM   1276  C8   DA A  32     116.721  77.614 186.375  1.00  0.00     0.214 A 
ATOM   1277  N3   DA A  32     117.623  78.037 189.734  1.00  0.00    -0.222 NA
ATOM   1278  C5   DA A  32     115.719  77.705 188.248  1.00  0.00     0.149 A 
ATOM   1279  C2   DA A  32     116.694  78.041 190.686  1.00  0.00     0.237 A 
ATOM   1280  N1   DA A  32     115.366  77.902 190.574  1.00  0.00    -0.222 NA
ATOM   1281  C6   DA A  32     114.836  77.729 189.344  1.00  0.00     0.155 A 
ATOM   1282  N6   DA A  32     113.515  77.592 189.235  1.00  0.00    -0.382 N 
ATOM   1283  H61  DA A  32     113.095  77.462 188.326  1.00  0.00     0.157 HD
ATOM   1284  H62  DA A  32     112.936  77.619 190.063  1.00  0.00     0.157 HD
ATOM   1285  N7   DA A  32     115.514  77.549 186.884  1.00  0.00    -0.236 NA
ATOM   1286 2'HO  DA A  32     121.828  76.723 187.895  1.00  0.00     0.210 HD
ENDBRANCH 698 701
ENDBRANCH 697 698
ENDBRANCH 657 697
ENDBRANCH 537 538
ENDBRANCH 536 537
ENDBRANCH 533 536
ENDBRANCH 532 533
ENDBRANCH 515 532
ENDBRANCH 510 511
ENDBRANCH 509 510
ENDBRANCH 506 509
ENDBRANCH 505 506
ENDBRANCH 490 505
ENDBRANCH 485 486
ENDBRANCH 484 485
ENDBRANCH 481 484
ENDBRANCH 480 481
ENDBRANCH 463 480
ENDBRANCH 458 459
ENDBRANCH 457 458
ENDBRANCH 454 457
ENDBRANCH 453 454
ENDBRANCH 438 453
ENDBRANCH 433 434
ENDBRANCH 432 433
ENDBRANCH 429 432
ENDBRANCH 428 429
ENDBRANCH 424 428
BRANCH 425 1287
ATOM   1287  O2'  DG A  20     102.714  99.602 185.829  1.00  0.00    -0.388 OA
ATOM   1288 2'HO  DG A  20     103.638  99.351 185.845  1.00  0.00     0.210 HD
ENDBRANCH 425 1287
BRANCH 426 1289
ATOM   1289  N9   DG A  20     103.785 102.399 183.731  1.00  0.00    -0.293 N 
ATOM   1290  C8   DG A  20     104.503 103.199 184.586  1.00  0.00     0.214 A 
ATOM   1291  N7   DG A  20     104.902 104.313 184.037  1.00  0.00    -0.234 NA
ATOM   1292  C5   DG A  20     104.413 104.247 182.738  1.00  0.00     0.173 A 
ATOM   1293  C6   DG A  20     104.528 105.168 181.663  1.00  0.00     0.292 A 
ATOM   1294  C4   DG A  20     103.718 103.074 182.535  1.00  0.00     0.187 A 
ATOM   1295  O6   DG A  20     105.104 106.262 181.640  1.00  0.00    -0.265 OA
ATOM   1296  N1   DG A  20     103.882 104.703 180.522  1.00  0.00    -0.153 N 
ATOM   1297  H1   DG A  20     103.912 105.290 179.703  1.00  0.00     0.187 HD
ATOM   1298  C2   DG A  20     103.211 103.512 180.426  1.00  0.00     0.703 A 
ATOM   1299  N3   DG A  20     103.098 102.645 181.417  1.00  0.00    -0.044 NA
BRANCH 1298 1300
ATOM   1300  N2   DG A  20     102.652 103.244 179.245  1.00  0.00    -0.233 N 
ATOM   1301  H22  DG A  20     101.655 103.347 179.118  1.00  0.00     0.174 HD
ATOM   1302  H21  DG A  20     103.238 102.951 178.476  1.00  0.00     0.174 HD
ENDBRANCH 1298 1300
ENDBRANCH 426 1289
ENDBRANCH 422 423
ENDBRANCH 421 422
ENDBRANCH 418 421
ENDBRANCH 417 418
ENDBRANCH 400 417
ENDBRANCH 395 396
ENDBRANCH 394 395
ENDBRANCH 391 394
ENDBRANCH 390 391
ENDBRANCH 373 390
ENDBRANCH 368 369
ENDBRANCH 367 368
ENDBRANCH 364 367
ENDBRANCH 363 364
ENDBRANCH 359 363
BRANCH 360 1303
ATOM   1303  O2'  DT A  17      95.573 114.484 183.351  1.00  0.00    -0.388 OA
ATOM   1304 2'HO  DT A  17      95.769 113.581 183.100  1.00  0.00     0.210 HD
ENDBRANCH 360 1303
BRANCH 361 1305
ATOM   1305  N1   DT A  17      95.055 115.737 186.252  1.00  0.00    -0.280 N 
ATOM   1306  C2   DT A  17      93.721 115.547 186.562  1.00  0.00     0.331 A 
ATOM   1307  N3   DT A  17      93.076 116.655 187.050  1.00  0.00    -0.275 N 
ATOM   1308  O2   DT A  17      93.152 114.480 186.419  1.00  0.00    -0.246 OA
ATOM   1309  H3   DT A  17      92.103 116.538 187.285  1.00  0.00     0.173 HD
ATOM   1310  C4   DT A  17      93.614 117.905 187.252  1.00  0.00     0.250 A 
ATOM   1311  O4   DT A  17      92.902 118.803 187.700  1.00  0.00    -0.268 OA
ATOM   1312  C5   DT A  17      94.995 118.021 186.906  1.00  0.00     0.092 A 
ATOM   1313  C6   DT A  17      95.657 116.962 186.430  1.00  0.00     0.104 A 
ENDBRANCH 361 1305
ENDBRANCH 357 358
ENDBRANCH 356 357
ENDBRANCH 353 356
ENDBRANCH 352 353
ENDBRANCH 348 352
BRANCH 349 1314
ATOM   1314  O2'  DT A  16     100.027 113.743 191.620  1.00  0.00    -0.388 OA
ATOM   1315 2'HO  DT A  16     100.114 112.842 191.306  1.00  0.00     0.210 HD
ENDBRANCH 349 1314
BRANCH 350 1316
ATOM   1316  N1   DT A  16      96.681 115.137 191.244  1.00  0.00    -0.280 N 
ATOM   1317  C6   DT A  16      96.123 116.299 190.759  1.00  0.00     0.104 A 
ATOM   1318  C5   DT A  16      94.874 116.349 190.290  1.00  0.00     0.092 A 
ATOM   1319  C4   DT A  16      94.064 115.173 190.282  1.00  0.00     0.250 A 
ATOM   1320  O4   DT A  16      92.911 115.091 189.864  1.00  0.00    -0.268 OA
ATOM   1321  N3   DT A  16      94.681 114.051 190.785  1.00  0.00    -0.275 N 
ATOM   1322  H3   DT A  16      94.129 113.206 190.802  1.00  0.00     0.173 HD
ATOM   1323  C2   DT A  16      95.959 113.959 191.274  1.00  0.00     0.331 A 
ATOM   1324  O2   DT A  16      96.414 112.912 191.699  1.00  0.00    -0.246 OA
ENDBRANCH 350 1316
ENDBRANCH 346 347
ENDBRANCH 345 346
ENDBRANCH 342 345
ENDBRANCH 341 342
ENDBRANCH 337 341
BRANCH 338 1325
ATOM   1325  O2'  DG A  15     101.735 119.775 188.227  1.00  0.00    -0.388 OA
ATOM   1326 2'HO  DG A  15     101.279 119.209 188.848  1.00  0.00     0.210 HD
ENDBRANCH 338 1325
BRANCH 339 1327
ATOM   1327  N9   DG A  15     102.567 123.294 187.954  1.00  0.00    -0.293 N 
ATOM   1328  C4   DG A  15     103.867 123.714 187.812  1.00  0.00     0.187 A 
ATOM   1329  C5   DG A  15     103.904 124.980 188.354  1.00  0.00     0.173 A 
ATOM   1330  N3   DG A  15     104.871 123.007 187.253  1.00  0.00    -0.044 NA
ATOM   1331  N7   DG A  15     102.653 125.351 188.828  1.00  0.00    -0.234 NA
ATOM   1332  C6   DG A  15     105.135 125.687 188.354  1.00  0.00     0.292 A 
ATOM   1333  C8   DG A  15     101.895 124.320 188.568  1.00  0.00     0.214 A 
ATOM   1334  O6   DG A  15     105.376 126.819 188.786  1.00  0.00    -0.265 OA
ATOM   1335  N1   DG A  15     106.155 124.939 187.775  1.00  0.00    -0.153 N 
ATOM   1336  H1   DG A  15     107.068 125.362 187.732  1.00  0.00     0.187 HD
ATOM   1337  C2   DG A  15     106.009 123.676 187.261  1.00  0.00     0.703 A 
BRANCH 1337 1338
ATOM   1338  N2   DG A  15     107.108 123.118 186.745  1.00  0.00    -0.233 N 
ATOM   1339  H22  DG A  15     107.113 122.148 186.469  1.00  0.00     0.174 HD
ATOM   1340  H21  DG A  15     107.939 123.682 186.633  1.00  0.00     0.174 HD
ENDBRANCH 1337 1338
ENDBRANCH 339 1327
ENDBRANCH 335 336
ENDBRANCH 334 335
ENDBRANCH 331 334
ENDBRANCH 330 331
ENDBRANCH 326 330
BRANCH 327 1341
ATOM   1341  O2'  DA A  14      94.602 124.744 187.509  1.00  0.00    -0.388 OA
ATOM   1342 2'HO  DA A  14      95.272 124.204 187.088  1.00  0.00     0.210 HD
ENDBRANCH 327 1341
BRANCH 328 1343
ATOM   1343  N9   DA A  14      91.059 124.514 186.614  1.00  0.00    -0.294 N 
ATOM   1344  C8   DA A  14      90.332 123.362 186.443  1.00  0.00     0.214 A 
ATOM   1345  N7   DA A  14      89.060 123.492 186.734  1.00  0.00    -0.236 NA
ATOM   1346  C5   DA A  14      88.942 124.819 187.124  1.00  0.00     0.149 A 
ATOM   1347  C4   DA A  14      90.165 125.460 187.054  1.00  0.00     0.167 A 
ATOM   1348  C6   DA A  14      87.844 125.586 187.555  1.00  0.00     0.155 A 
ATOM   1349  N3   DA A  14      90.420 126.744 187.358  1.00  0.00    -0.222 NA
ATOM   1350  C2   DA A  14      89.310 127.363 187.752  1.00  0.00     0.237 A 
ATOM   1351  N1   DA A  14      88.066 126.880 187.869  1.00  0.00    -0.222 NA
BRANCH 1348 1352
ATOM   1352  N6   DA A  14      86.606 125.107 187.671  1.00  0.00    -0.382 N 
ATOM   1353  H61  DA A  14      86.178 125.024 188.582  1.00  0.00     0.157 HD
ATOM   1354  H62  DA A  14      86.101 124.823 186.844  1.00  0.00     0.157 HD
ENDBRANCH 1348 1352
ENDBRANCH 328 1343
ENDBRANCH 324 325
ENDBRANCH 323 324
ENDBRANCH 320 323
ENDBRANCH 319 320
ENDBRANCH 318 319
BRANCH 317 1355
ATOM   1355  O2'  DC A  13      90.681 121.838 180.756  1.00  0.00    -0.388 OA
ATOM   1356 2'HO  DC A  13      90.887 120.953 181.059  1.00  0.00     0.210 HD
ENDBRANCH 317 1355
BRANCH 315 1357
ATOM   1357  N4   DC A  13      91.369 128.344 184.446  1.00  0.00    -0.384 N 
ATOM   1358  H41  DC A  13      92.319 128.676 184.360  1.00  0.00     0.157 HD
ATOM   1359  H42  DC A  13      90.715 128.827 185.046  1.00  0.00     0.157 HD
ENDBRANCH 315 1357
TORSDOF 427
ENDMDL
MODEL 6
REMARK VINA RESULT:      -7.1     21.043     37.737
REMARK WARNING: 32 MAX_TORS EXCEEDED!!!
REMARK  99 active torsions:
REMARK  status: ('A' for Active; 'I' for Inactive)
REMARK       I    between atoms: O5'_2  and  C5'_3 
REMARK       I    between atoms: C5'_3  and  C4'_4 
REMARK       I    between atoms: C1'_6  and  N9_7 
REMARK       I    between atoms: C2_10  and  N2_11 
REMARK       I    between atoms: C2'_21  and  O2'_22 
REMARK       I    between atoms: C3'_24  and  O3'_25 
REMARK       I    between atoms: O3'_25  and  P_26 
REMARK       I    between atoms: P_26  and  O5'_29 
REMARK       I    between atoms: O5'_29  and  C5'_30 
REMARK       I    between atoms: C5'_30  and  C4'_31 
REMARK       I    between atoms: C1'_33  and  N9_34 
REMARK       I    between atoms: C2_37  and  N2_38 
REMARK       I    between atoms: C2'_48  and  O2'_49 
REMARK       I    between atoms: C3'_51  and  O3'_52 
REMARK       I    between atoms: O3'_52  and  P_53 
REMARK       I    between atoms: P_53  and  O5'_56 
REMARK       I    between atoms: O5'_56  and  C5'_57 
REMARK       I    between atoms: C5'_57  and  C4'_58 
REMARK       I    between atoms: C1'_60  and  N9_61 
REMARK       I    between atoms: C2_64  and  N2_65 
REMARK       I    between atoms: C2'_75  and  O2'_76 
REMARK       I    between atoms: C3'_78  and  O3'_79 
REMARK       I    between atoms: O3'_79  and  P_80 
REMARK       I    between atoms: P_80  and  O5'_83 
REMARK       I    between atoms: O5'_83  and  C5'_84 
REMARK       I    between atoms: C5'_84  and  C4'_85 
REMARK       I    between atoms: C1'_87  and  N9_88 
REMARK       I    between atoms: C2_91  and  N2_92 
REMARK       I    between atoms: C2'_102  and  O2'_103 
REMARK       I    between atoms: C3'_105  and  O3'_106 
REMARK       I    between atoms: O3'_106  and  P_107 
REMARK       I    between atoms: P_107  and  O5'_110 
REMARK       I    between atoms: O5'_110  and  C5'_111 
REMARK       I    between atoms: C5'_111  and  C4'_112 
REMARK       I    between atoms: C1'_114  and  N9_115 
REMARK       I    between atoms: C2_118  and  N2_119 
REMARK       I    between atoms: C2'_129  and  O2'_130 
REMARK       I    between atoms: C3'_132  and  O3'_133 
REMARK       I    between atoms: O3'_133  and  P_134 
REMARK       I    between atoms: P_134  and  O5'_137 
REMARK       I    between atoms: O5'_137  and  C5'_138 
REMARK       I    between atoms: C5'_138  and  C4'_139 
REMARK       I    between atoms: C1'_141  and  N1_142 
REMARK       I    between atoms: C2'_151  and  O2'_152 
REMARK       I    between atoms: C3'_154  and  O3'_155 
REMARK       I    between atoms: O3'_155  and  P_156 
REMARK       I    between atoms: P_156  and  O5'_159 
REMARK       I    between atoms: O5'_159  and  C5'_160 
REMARK       I    between atoms: C5'_160  and  C4'_161 
REMARK       I    between atoms: C1'_163  and  N9_164 
REMARK       I    between atoms: C2_167  and  N2_168 
REMARK       I    between atoms: C2'_178  and  O2'_179 
REMARK       I    between atoms: C3'_181  and  O3'_182 
REMARK       I    between atoms: O3'_182  and  P_183 
REMARK       I    between atoms: P_183  and  O5'_186 
REMARK       I    between atoms: O5'_186  and  C5'_187 
REMARK       I    between atoms: C5'_187  and  C4'_188 
REMARK       I    between atoms: C1'_190  and  N1_191 
REMARK       I    between atoms: C2'_200  and  O2'_201 
REMARK       I    between atoms: C3'_203  and  O3'_204 
REMARK       I    between atoms: O3'_204  and  P_205 
REMARK       I    between atoms: P_205  and  O5'_208 
REMARK       I    between atoms: O5'_208  and  C5'_209 
REMARK       I    between atoms: C5'_209  and  C4'_210 
REMARK       I    between atoms: C1'_212  and  N9_213 
REMARK       I    between atoms: C6_218  and  N6_219 
REMARK       I    between atoms: C2'_225  and  O2'_226 
REMARK       I    between atoms: C3'_228  and  O3'_229 
REMARK       I    between atoms: O3'_229  and  P_230 
REMARK       I    between atoms: P_230  and  O5'_233 
REMARK       I    between atoms: O5'_233  and  C5'_234 
REMARK       I    between atoms: C5'_234  and  C4'_235 
REMARK       I    between atoms: C1'_237  and  N9_238 
REMARK       I    between atoms: C2_241  and  N2_242 
REMARK       I    between atoms: C2'_252  and  O2'_253 
REMARK       I    between atoms: C3'_255  and  O3'_256 
REMARK       I    between atoms: O3'_256  and  P_257 
REMARK       I    between atoms: P_257  and  O5'_260 
REMARK       I    between atoms: O5'_260  and  C5'_261 
REMARK       I    between atoms: C5'_261  and  C4'_262 
REMARK       I    between atoms: C1'_264  and  N1_265 
REMARK       I    between atoms: C4_270  and  N4_271 
REMARK       I    between atoms: C2'_275  and  O2'_276 
REMARK       I    between atoms: C3'_278  and  O3'_279 
REMARK       I    between atoms: O3'_279  and  P_280 
REMARK       I    between atoms: P_280  and  O5'_283 
REMARK       I    between atoms: O5'_283  and  C5'_284 
REMARK       I    between atoms: C5'_284  and  C4'_285 
REMARK       I    between atoms: C1'_287  and  N1_288 
REMARK       I    between atoms: C2'_297  and  O2'_298 
REMARK       I    between atoms: C3'_300  and  O3'_301 
REMARK       I    between atoms: O3'_301  and  P_302 
REMARK       I    between atoms: P_302  and  O5'_305 
REMARK       I    between atoms: O5'_305  and  C5'_306 
REMARK       I    between atoms: C5'_306  and  C4'_307 
REMARK       I    between atoms: C1'_309  and  N1_310 
REMARK    1  A    between atoms: C4_315  and  N4_316 
REMARK    2  A    between atoms: C2'_320  and  O2'_321 
REMARK    3  A    between atoms: C3'_323  and  O3'_324 
REMARK    4  A    between atoms: O3'_324  and  P_325 
REMARK    5  A    between atoms: P_325  and  O5'_328 
REMARK    6  A    between atoms: O5'_328  and  C5'_329 
REMARK    7  A    between atoms: C5'_329  and  C4'_330 
REMARK    8  A    between atoms: C1'_332  and  N9_333 
REMARK    9  A    between atoms: C6_338  and  N6_339 
REMARK   10  A    between atoms: C2'_345  and  O2'_346 
REMARK   11  A    between atoms: C3'_348  and  O3'_349 
REMARK   12  A    between atoms: O3'_349  and  P_350 
REMARK   13  A    between atoms: P_350  and  O5'_353 
REMARK   14  A    between atoms: O5'_353  and  C5'_354 
REMARK   15  A    between atoms: C5'_354  and  C4'_355 
REMARK   16  A    between atoms: C1'_357  and  N9_358 
REMARK   17  A    between atoms: C2_361  and  N2_362 
REMARK   18  A    between atoms: C2'_372  and  O2'_373 
REMARK   19  A    between atoms: C3'_375  and  O3'_376 
REMARK   20  A    between atoms: O3'_376  and  P_377 
REMARK   21  A    between atoms: P_377  and  O5'_380 
REMARK   22  A    between atoms: O5'_380  and  C5'_381 
REMARK   23  A    between atoms: C5'_381  and  C4'_382 
REMARK   24  A    between atoms: C1'_384  and  N1_385 
REMARK   25  A    between atoms: C2'_394  and  O2'_395 
REMARK   26  A    between atoms: C3'_397  and  O3'_398 
REMARK   27  A    between atoms: O3'_398  and  P_399 
REMARK   28  A    between atoms: P_399  and  O5'_402 
REMARK   29  A    between atoms: O5'_402  and  C5'_403 
REMARK   30  A    between atoms: C5'_403  and  C4'_404 
REMARK   31  A    between atoms: C1'_406  and  N1_407 
REMARK   32  A    between atoms: C2'_416  and  O2'_417 
REMARK   33  A    between atoms: C3'_419  and  O3'_420 
REMARK   34  A    between atoms: O3'_420  and  P_421 
REMARK   35  A    between atoms: P_421  and  O5'_424 
REMARK   36  A    between atoms: O5'_424  and  C5'_425 
REMARK   37  A    between atoms: C5'_425  and  C4'_426 
REMARK   38  A    between atoms: C1'_428  and  N9_429 
REMARK   39  A    between atoms: C2_432  and  N2_433 
REMARK   40  A    between atoms: C2'_443  and  O2'_444 
REMARK   41  A    between atoms: C3'_446  and  O3'_447 
REMARK   42  A    between atoms: O3'_447  and  P_448 
REMARK   43  A    between atoms: P_448  and  O5'_451 
REMARK   44  A    between atoms: O5'_451  and  C5'_452 
REMARK   45  A    between atoms: C5'_452  and  C4'_453 
REMARK   46  A    between atoms: C1'_455  and  N9_456 
REMARK   47  A    between atoms: C2_459  and  N2_460 
REMARK   48  A    between atoms: C2'_470  and  O2'_471 
REMARK   49  A    between atoms: C3'_473  and  O3'_474 
REMARK   50  A    between atoms: O3'_474  and  P_475 
REMARK   51  A    between atoms: P_475  and  O5'_478 
REMARK   52  A    between atoms: O5'_478  and  C5'_479 
REMARK   53  A    between atoms: C5'_479  and  C4'_480 
REMARK   54  A    between atoms: C1'_482  and  N9_483 
REMARK   55  A    between atoms: C2_486  and  N2_487 
REMARK   56  A    between atoms: C2'_497  and  O2'_498 
REMARK   57  A    between atoms: C3'_500  and  O3'_501 
REMARK   58  A    between atoms: O3'_501  and  P_502 
REMARK   59  A    between atoms: P_502  and  O5'_505 
REMARK   60  A    between atoms: O5'_505  and  C5'_506 
REMARK   61  A    between atoms: C5'_506  and  C4'_507 
REMARK   62  A    between atoms: C1'_509  and  N9_510 
REMARK   63  A    between atoms: C6_515  and  N6_516 
REMARK   64  A    between atoms: C2'_522  and  O2'_523 
REMARK   65  A    between atoms: C3'_525  and  O3'_526 
REMARK   66  A    between atoms: O3'_526  and  P_527 
REMARK   67  A    between atoms: P_527  and  O5'_530 
REMARK   68  A    between atoms: O5'_530  and  C5'_531 
REMARK   69  A    between atoms: C5'_531  and  C4'_532 
REMARK   70  A    between atoms: C1'_534  and  N9_535 
REMARK   71  A    between atoms: C2_538  and  N2_539 
REMARK   72  A    between atoms: C2'_549  and  O2'_550 
REMARK   73  A    between atoms: C3'_552  and  O3'_553 
REMARK   74  A    between atoms: O3'_553  and  P_554 
REMARK   75  A    between atoms: P_554  and  O5'_557 
REMARK   76  A    between atoms: O5'_557  and  C5'_558 
REMARK   77  A    between atoms: C5'_558  and  C4'_559 
REMARK   78  A    between atoms: C1'_561  and  N9_562 
REMARK   79  A    between atoms: C6_567  and  N6_568 
REMARK   80  A    between atoms: C2'_574  and  O2'_575 
REMARK   81  A    between atoms: C3'_577  and  O3'_578 
REMARK   82  A    between atoms: O3'_578  and  P_579 
REMARK   83  A    between atoms: P_579  and  O5'_582 
REMARK   84  A    between atoms: O5'_582  and  C5'_583 
REMARK   85  A    between atoms: C5'_583  and  C4'_584 
REMARK   86  A    between atoms: C1'_586  and  N9_587 
REMARK   87  A    between atoms: C2_590  and  N2_591 
REMARK   88  A    between atoms: C2'_601  and  O2'_602 
REMARK   89  A    between atoms: C3'_604  and  O3'_605 
REMARK   90  A    between atoms: O3'_605  and  P_606 
REMARK   91  A    between atoms: P_606  and  O5'_609 
REMARK   92  A    between atoms: O5'_609  and  C5'_610 
REMARK   93  A    between atoms: C5'_610  and  C4'_611 
REMARK   94  A    between atoms: C1'_613  and  N1_614 
REMARK       I    between atoms: C4_619  and  N4_620 
REMARK       I    between atoms: C2'_624  and  O2'_625 
REMARK       I    between atoms: C3'_627  and  O3'_628 
REMARK       I    between atoms: O3'_628  and  P_629 
REMARK       I    between atoms: P_629  and  O5'_632 
REMARK       I    between atoms: O5'_632  and  C5'_633 
REMARK       I    between atoms: C5'_633  and  C4'_634 
REMARK       I    between atoms: C1'_636  and  N9_637 
REMARK       I    between atoms: C2_640  and  N2_641 
REMARK       I    between atoms: C2'_651  and  O2'_652 
REMARK       I    between atoms: C3'_654  and  O3'_655 
REMARK       I    between atoms: O3'_655  and  P_656 
REMARK       I    between atoms: P_656  and  O5'_659 
REMARK       I    between atoms: O5'_659  and  C5'_660 
REMARK       I    between atoms: C5'_660  and  C4'_661 
REMARK       I    between atoms: C1'_663  and  N1_664 
REMARK       I    between atoms: C4_669  and  N4_670 
REMARK       I    between atoms: C2'_674  and  O2'_675 
REMARK       I    between atoms: C3'_677  and  O3'_678 
REMARK       I    between atoms: O3'_678  and  P_679 
REMARK       I    between atoms: P_679  and  O5'_682 
REMARK       I    between atoms: O5'_682  and  C5'_683 
REMARK       I    between atoms: C5'_683  and  C4'_684 
REMARK       I    between atoms: C1'_686  and  N1_687 
REMARK       I    between atoms: C2'_696  and  O2'_697 
REMARK       I    between atoms: C3'_699  and  O3'_700 
REMARK       I    between atoms: O3'_700  and  P_701 
REMARK       I    between atoms: P_701  and  O5'_704 
REMARK       I    between atoms: O5'_704  and  C5'_705 
REMARK       I    between atoms: C5'_705  and  C4'_706 
REMARK       I    between atoms: C1'_708  and  N1_709 
REMARK       I    between atoms: C2'_718  and  O2'_719 
REMARK       I    between atoms: C3'_721  and  O3'_722 
REMARK       I    between atoms: O3'_722  and  P_723 
REMARK       I    between atoms: P_723  and  O5'_726 
REMARK       I    between atoms: O5'_726  and  C5'_727 
REMARK       I    between atoms: C5'_727  and  C4'_728 
REMARK       I    between atoms: C1'_730  and  N1_731 
REMARK       I    between atoms: C4_736  and  N4_737 
REMARK       I    between atoms: C2'_741  and  O2'_742 
REMARK       I    between atoms: C3'_744  and  O3'_745 
REMARK       I    between atoms: O3'_745  and  P_746 
REMARK       I    between atoms: P_746  and  O5'_749 
REMARK       I    between atoms: O5'_749  and  C5'_750 
REMARK       I    between atoms: C5'_750  and  C4'_751 
REMARK       I    between atoms: C1'_753  and  N9_754 
REMARK   95  A    between atoms: C6_759  and  N6_760 
REMARK   96  A    between atoms: C2'_766  and  O2'_767 
REMARK   97  A    between atoms: C3'_769  and  O3'_770 
REMARK   98  A    between atoms: O3'_770  and  P_771 
REMARK   99  A    between atoms: P_771  and  O5'_774 
REMARK       I    between atoms: O5'_774  and  C5'_775 
REMARK       I    between atoms: C5'_775  and  C4'_776 
REMARK       I    between atoms: C1'_778  and  N9_779 
REMARK       I    between atoms: C6_784  and  N6_785 
REMARK       I    between atoms: C2'_791  and  O2'_792 
REMARK       I    between atoms: C3'_794  and  O3'_795 
REMARK       I    between atoms: O3'_795  and  P_796 
REMARK       I    between atoms: P_796  and  O5'_799 
REMARK       I    between atoms: O5'_799  and  C5'_800 
REMARK       I    between atoms: C5'_800  and  C4'_801 
REMARK       I    between atoms: C1'_803  and  N1_804 
REMARK       I    between atoms: C2'_813  and  O2'_814 
REMARK       I    between atoms: C3'_816  and  O3'_817 
REMARK       I    between atoms: O3'_817  and  P_818 
REMARK       I    between atoms: P_818  and  O5'_821 
REMARK       I    between atoms: O5'_821  and  C5'_822 
REMARK       I    between atoms: C5'_822  and  C4'_823 
REMARK       I    between atoms: C1'_825  and  N9_826 
REMARK       I    between atoms: C2_829  and  N2_830 
REMARK       I    between atoms: C2'_840  and  O2'_841 
REMARK       I    between atoms: C3'_843  and  O3'_844 
REMARK       I    between atoms: O3'_844  and  P_845 
REMARK       I    between atoms: P_845  and  O5'_848 
REMARK       I    between atoms: O5'_848  and  C5'_849 
REMARK       I    between atoms: C5'_849  and  C4'_850 
REMARK       I    between atoms: C1'_852  and  N9_853 
REMARK       I    between atoms: C2_856  and  N2_857 
REMARK       I    between atoms: C2'_867  and  O2'_868 
REMARK       I    between atoms: C3'_870  and  O3'_871 
REMARK       I    between atoms: O3'_871  and  P_872 
REMARK       I    between atoms: P_872  and  O5'_875 
REMARK       I    between atoms: O5'_875  and  C5'_876 
REMARK       I    between atoms: C5'_876  and  C4'_877 
REMARK       I    between atoms: C1'_879  and  N1_880 
REMARK       I    between atoms: C4_885  and  N4_886 
REMARK       I    between atoms: C2'_890  and  O2'_891 
REMARK       I    between atoms: C3'_893  and  O3'_894 
REMARK       I    between atoms: O3'_894  and  P_895 
REMARK       I    between atoms: P_895  and  O5'_898 
REMARK       I    between atoms: O5'_898  and  C5'_899 
REMARK       I    between atoms: C5'_899  and  C4'_900 
REMARK       I    between atoms: C1'_902  and  N9_903 
REMARK       I    between atoms: C6_908  and  N6_909 
REMARK       I    between atoms: C2'_915  and  O2'_916 
REMARK       I    between atoms: C3'_918  and  O3'_919 
REMARK       I    between atoms: O3'_919  and  P_920 
REMARK       I    between atoms: P_920  and  O5'_923 
REMARK       I    between atoms: O5'_923  and  C5'_924 
REMARK       I    between atoms: C5'_924  and  C4'_925 
REMARK       I    between atoms: C1'_927  and  N1_928 
REMARK       I    between atoms: C2'_937  and  O2'_938 
REMARK       I    between atoms: C3'_940  and  O3'_941 
REMARK       I    between atoms: O3'_941  and  P_942 
REMARK       I    between atoms: P_942  and  O5'_945 
REMARK       I    between atoms: O5'_945  and  C5'_946 
REMARK       I    between atoms: C5'_946  and  C4'_947 
REMARK       I    between atoms: C1'_949  and  N1_950 
REMARK       I    between atoms: C2'_959  and  O2'_960 
REMARK       I    between atoms: C3'_962  and  O3'_963 
REMARK       I    between atoms: O3'_963  and  P_964 
REMARK       I    between atoms: P_964  and  O5'_967 
REMARK       I    between atoms: O5'_967  and  C5'_968 
REMARK       I    between atoms: C5'_968  and  C4'_969 
REMARK       I    between atoms: C1'_971  and  N9_972 
REMARK       I    between atoms: C2_975  and  N2_976 
REMARK       I    between atoms: C2'_986  and  O2'_987 
REMARK       I    between atoms: C3'_989  and  O3'_990 
REMARK       I    between atoms: O3'_990  and  P_991 
REMARK       I    between atoms: P_991  and  O5'_994 
REMARK       I    between atoms: O5'_994  and  C5'_995 
REMARK       I    between atoms: C5'_995  and  C4'_996 
REMARK       I    between atoms: C1'_998  and  N9_999 
REMARK       I    between atoms: C6_1004  and  N6_1005 
REMARK       I    between atoms: C2'_1011  and  O2'_1012 
REMARK       I    between atoms: C3'_1014  and  O3'_1015 
REMARK       I    between atoms: O3'_1015  and  P_1016 
REMARK       I    between atoms: P_1016  and  O5'_1019 
REMARK       I    between atoms: O5'_1019  and  C5'_1020 
REMARK       I    between atoms: C5'_1020  and  C4'_1021 
REMARK       I    between atoms: C1'_1023  and  N9_1024 
REMARK       I    between atoms: C6_1029  and  N6_1030 
REMARK       I    between atoms: C2'_1036  and  O2'_1037 
REMARK       I    between atoms: C3'_1039  and  O3'_1040 
REMARK       I    between atoms: O3'_1040  and  P_1041 
REMARK       I    between atoms: P_1041  and  O5'_1044 
REMARK       I    between atoms: O5'_1044  and  C5'_1045 
REMARK       I    between atoms: C5'_1045  and  C4'_1046 
REMARK       I    between atoms: C1'_1048  and  N9_1049 
REMARK       I    between atoms: C2_1052  and  N2_1053 
REMARK       I    between atoms: C2'_1063  and  O2'_1064 
REMARK       I    between atoms: C3'_1066  and  O3'_1067 
REMARK       I    between atoms: O3'_1067  and  P_1068 
REMARK       I    between atoms: P_1068  and  O5'_1071 
REMARK       I    between atoms: O5'_1071  and  C5'_1072 
REMARK       I    between atoms: C5'_1072  and  C4'_1073 
REMARK       I    between atoms: C1'_1075  and  N9_1076 
REMARK       I    between atoms: C6_1081  and  N6_1082 
REMARK       I    between atoms: C2'_1088  and  O2'_1089 
REMARK       I    between atoms: C3'_1091  and  O3'_1092 
REMARK       I    between atoms: O3'_1092  and  P_1093 
REMARK       I    between atoms: P_1093  and  O5'_1096 
REMARK       I    between atoms: O5'_1096  and  C5'_1097 
REMARK       I    between atoms: C5'_1097  and  C4'_1098 
REMARK       I    between atoms: C1'_1100  and  N9_1101 
REMARK       I    between atoms: C2_1104  and  N2_1105 
REMARK       I    between atoms: C2'_1115  and  O2'_1116 
REMARK       I    between atoms: C3'_1118  and  O3'_1119 
REMARK       I    between atoms: O3'_1119  and  P_1120 
REMARK       I    between atoms: P_1120  and  O5'_1123 
REMARK       I    between atoms: O5'_1123  and  C5'_1124 
REMARK       I    between atoms: C5'_1124  and  C4'_1125 
REMARK       I    between atoms: C1'_1127  and  N9_1128 
REMARK       I    between atoms: C2_1131  and  N2_1132 
REMARK       I    between atoms: C2'_1142  and  O2'_1143 
REMARK       I    between atoms: C3'_1145  and  O3'_1146 
REMARK       I    between atoms: O3'_1146  and  P_1147 
REMARK       I    between atoms: P_1147  and  O5'_1150 
REMARK       I    between atoms: O5'_1150  and  C5'_1151 
REMARK       I    between atoms: C5'_1151  and  C4'_1152 
REMARK       I    between atoms: C1'_1154  and  N1_1155 
REMARK       I    between atoms: C2'_1164  and  O2'_1165 
REMARK       I    between atoms: C3'_1167  and  O3'_1168 
REMARK       I    between atoms: O3'_1168  and  P_1169 
REMARK       I    between atoms: P_1169  and  O5'_1172 
REMARK       I    between atoms: O5'_1172  and  C5'_1173 
REMARK       I    between atoms: C5'_1173  and  C4'_1174 
REMARK       I    between atoms: C1'_1176  and  N1_1177 
REMARK       I    between atoms: C4_1182  and  N4_1183 
REMARK       I    between atoms: C2'_1187  and  O2'_1188 
REMARK       I    between atoms: C3'_1190  and  O3'_1191 
REMARK       I    between atoms: O3'_1191  and  P_1192 
REMARK       I    between atoms: P_1192  and  O5'_1195 
REMARK       I    between atoms: O5'_1195  and  C5'_1196 
REMARK       I    between atoms: C5'_1196  and  C4'_1197 
REMARK       I    between atoms: C1'_1199  and  N9_1200 
REMARK       I    between atoms: C6_1205  and  N6_1206 
REMARK       I    between atoms: C2'_1212  and  O2'_1213 
REMARK       I    between atoms: C3'_1215  and  O3'_1216 
REMARK       I    between atoms: O3'_1216  and  P_1217 
REMARK       I    between atoms: P_1217  and  O5'_1220 
REMARK       I    between atoms: O5'_1220  and  C5'_1221 
REMARK       I    between atoms: C5'_1221  and  C4'_1222 
REMARK       I    between atoms: C1'_1224  and  N9_1225 
REMARK       I    between atoms: C2_1228  and  N2_1229 
REMARK       I    between atoms: C2'_1239  and  O2'_1240 
REMARK       I    between atoms: C3'_1242  and  O3'_1243 
REMARK       I    between atoms: O3'_1243  and  P_1244 
REMARK       I    between atoms: P_1244  and  O5'_1247 
REMARK       I    between atoms: O5'_1247  and  C5'_1248 
REMARK       I    between atoms: C5'_1248  and  C4'_1249 
REMARK       I    between atoms: C1'_1251  and  N1_1252 
REMARK       I    between atoms: C4_1257  and  N4_1258 
REMARK       I    between atoms: C2'_1262  and  O2'_1263 
REMARK       I    between atoms: C3'_1265  and  O3'_1266 
REMARK       I    between atoms: O3'_1266  and  P_1267 
REMARK       I    between atoms: P_1267  and  O5'_1270 
REMARK       I    between atoms: O5'_1270  and  C5'_1271 
REMARK       I    between atoms: C5'_1271  and  C4'_1272 
REMARK       I    between atoms: C1'_1274  and  N1_1275 
REMARK       I    between atoms: C4_1280  and  N4_1281 
REMARK       I    between atoms: C2'_1285  and  O2'_1286 
REMARK       I    between atoms: C3'_1288  and  O3'_1289 
REMARK       I    between atoms: O3'_1289  and  P_1290 
REMARK       I    between atoms: P_1290  and  O5'_1293 
REMARK       I    between atoms: O5'_1293  and  C5'_1294 
REMARK       I    between atoms: C5'_1294  and  C4'_1295 
REMARK       I    between atoms: C1'_1297  and  N1_1298 
REMARK       I    between atoms: C4_1303  and  N4_1304 
REMARK       I    between atoms: C2'_1308  and  O2'_1309 
REMARK       I    between atoms: C3'_1311  and  O3'_1312 
REMARK       I    between atoms: O3'_1312  and  P_1313 
REMARK       I    between atoms: P_1313  and  O5'_1316 
REMARK       I    between atoms: O5'_1316  and  C5'_1317 
REMARK       I    between atoms: C5'_1317  and  C4'_1318 
REMARK       I    between atoms: C1'_1320  and  N1_1321 
REMARK       I    between atoms: C4_1326  and  N4_1327 
REMARK       I    between atoms: C2'_1331  and  O2'_1332 
REMARK       I    between atoms: C3'_1334  and  O3'_1335 
REMARK       I    between atoms: O3'_1335  and  P_1336 
REMARK       I    between atoms: P_1336  and  O5'_1339 
REMARK       I    between atoms: O5'_1339  and  C5'_1340 
REMARK       I    between atoms: C5'_1340  and  C4'_1341 
REMARK       I    between atoms: C1'_1343  and  N1_1344 
REMARK       I    between atoms: C4_1349  and  N4_1350 
REMARK       I    between atoms: C2'_1354  and  O2'_1355 
REMARK       I    between atoms: C3'_1357  and  O3'_1358 
ROOT
ATOM      1 5'HO  DG A   1      90.884 156.023 162.022  1.00  0.00     0.209 HD
ATOM      2  O5'  DG A   1      90.009 155.627 162.065  1.00  0.00    -0.398 OA
ATOM      3  C5'  DG A   1      89.751 155.041 160.785  1.00  0.00     0.198 C 
ATOM      4  C4'  DG A   1      91.008 155.005 159.948  1.00  0.00     0.180 C 
ATOM      5  O4'  DG A   1      91.373 156.368 159.595  1.00  0.00    -0.353 OA
ATOM      6  C1'  DG A   1      92.769 156.547 159.749  1.00  0.00     0.262 C 
ATOM      7  N9   DG A   1      92.994 157.461 160.866  1.00  0.00    -0.293 N 
ATOM      8  C4   DG A   1      94.210 157.898 161.333  1.00  0.00     0.187 A 
ATOM      9  N3   DG A   1      95.419 157.556 160.839  1.00  0.00    -0.044 NA
ATOM     10  C2   DG A   1      96.403 158.141 161.498  1.00  0.00     0.703 A 
ATOM     11  N2   DG A   1      97.669 157.914 161.138  1.00  0.00    -0.233 N 
ATOM     12  H21  DG A   1      97.858 157.296 160.363  1.00  0.00     0.174 HD
ATOM     13  H22  DG A   1      98.428 158.359 161.636  1.00  0.00     0.174 HD
ATOM     14  N1   DG A   1      96.220 158.991 162.558  1.00  0.00    -0.153 N 
ATOM     15  H1   DG A   1      97.041 159.382 162.991  1.00  0.00     0.187 HD
ATOM     16  C6   DG A   1      94.987 159.356 163.086  1.00  0.00     0.292 A 
ATOM     17  O6   DG A   1      94.937 160.135 164.047  1.00  0.00    -0.265 OA
ATOM     18  C5   DG A   1      93.917 158.737 162.388  1.00  0.00     0.173 A 
ATOM     19  N7   DG A   1      92.545 158.826 162.581  1.00  0.00    -0.234 NA
ATOM     20  C8   DG A   1      92.041 158.055 161.658  1.00  0.00     0.214 A 
ATOM     21  C2'  DG A   1      93.382 155.163 159.951  1.00  0.00     0.199 C 
ATOM     22  O2'  DG A   1      93.655 154.596 158.682  1.00  0.00    -0.388 OA
ATOM     23 2'HO  DG A   1      93.703 153.648 158.809  1.00  0.00     0.210 HD
ATOM     24  C3'  DG A   1      92.238 154.436 160.645  1.00  0.00     0.198 C 
ATOM     25  O3'  DG A   1      92.317 153.021 160.489  1.00  0.00    -0.279 OA
ATOM     26  P    DG A   2      92.951 152.121 161.663  1.00  0.00     0.408 P 
ATOM     27  OP1  DG A   2      92.815 150.701 161.246  1.00  0.00    -0.624 OA
ATOM     28  OP2  DG A   2      92.372 152.563 162.957  1.00  0.00    -0.624 OA
ATOM     29  O5'  DG A   2      94.498 152.500 161.648  1.00  0.00    -0.287 OA
ATOM     30  C5'  DG A   2      95.327 152.167 160.535  1.00  0.00     0.216 C 
ATOM     31  C4'  DG A   2      96.780 152.404 160.877  1.00  0.00     0.180 C 
ATOM     32  O4'  DG A   2      97.048 153.832 160.853  1.00  0.00    -0.353 OA
ATOM     33  C1'  DG A   2      97.975 154.159 161.876  1.00  0.00     0.262 C 
ATOM     34  N9   DG A   2      97.329 155.073 162.812  1.00  0.00    -0.293 N 
ATOM     35  C4   DG A   2      97.957 155.899 163.713  1.00  0.00     0.187 A 
ATOM     36  N3   DG A   2      99.290 156.013 163.888  1.00  0.00    -0.044 NA
ATOM     37  C2   DG A   2      99.590 156.887 164.831  1.00  0.00     0.703 A 
ATOM     38  N2   DG A   2     100.869 157.121 165.135  1.00  0.00    -0.233 N 
ATOM     39  H21  DG A   2     101.595 156.625 164.638  1.00  0.00     0.174 HD
ATOM     40  H22  DG A   2     101.110 157.785 165.857  1.00  0.00     0.174 HD
ATOM     41  N1   DG A   2      98.660 157.596 165.547  1.00  0.00    -0.153 N 
ATOM     42  H1   DG A   2      98.997 158.237 166.247  1.00  0.00     0.187 HD
ATOM     43  C6   DG A   2      97.283 157.498 165.384  1.00  0.00     0.292 A 
ATOM     44  O6   DG A   2      96.532 158.189 166.082  1.00  0.00    -0.265 OA
ATOM     45  C5   DG A   2      96.942 156.560 164.374  1.00  0.00     0.173 A 
ATOM     46  N7   DG A   2      95.701 156.159 163.898  1.00  0.00    -0.234 NA
ATOM     47  C8   DG A   2      95.980 155.279 162.976  1.00  0.00     0.214 A 
ATOM     48  C2'  DG A   2      98.426 152.849 162.520  1.00  0.00     0.199 C 
ATOM     49  O2'  DG A   2      99.562 152.368 161.826  1.00  0.00    -0.388 OA
ATOM     50 2'HO  DG A   2     100.052 151.825 162.444  1.00  0.00     0.210 HD
ATOM     51  C3'  DG A   2      97.208 151.969 162.270  1.00  0.00     0.198 C 
ATOM     52  O3'  DG A   2      97.516 150.579 162.322  1.00  0.00    -0.279 OA
ATOM     53  P    DG A   3      97.450 149.799 163.726  1.00  0.00     0.408 P 
ATOM     54  OP1  DG A   3      97.847 148.392 163.469  1.00  0.00    -0.624 OA
ATOM     55  OP2  DG A   3      96.138 150.084 164.360  1.00  0.00    -0.624 OA
ATOM     56  O5'  DG A   3      98.590 150.485 164.604  1.00  0.00    -0.287 OA
ATOM     57  C5'  DG A   3      99.950 150.074 164.490  1.00  0.00     0.216 C 
ATOM     58  C4'  DG A   3     100.863 151.080 165.159  1.00  0.00     0.180 C 
ATOM     59  O4'  DG A   3     100.345 152.419 164.959  1.00  0.00    -0.353 OA
ATOM     60  C1'  DG A   3     100.771 153.248 166.027  1.00  0.00     0.262 C 
ATOM     61  N9   DG A   3      99.610 153.951 166.564  1.00  0.00    -0.293 N 
ATOM     62  C4   DG A   3      99.623 154.903 167.554  1.00  0.00     0.187 A 
ATOM     63  N3   DG A   3     100.716 155.354 168.205  1.00  0.00    -0.044 NA
ATOM     64  C2   DG A   3     100.410 156.268 169.108  1.00  0.00     0.703 A 
ATOM     65  N2   DG A   3     101.375 156.817 169.850  1.00  0.00    -0.233 N 
ATOM     66  H21  DG A   3     102.331 156.524 169.711  1.00  0.00     0.174 HD
ATOM     67  H22  DG A   3     101.152 157.513 170.548  1.00  0.00     0.174 HD
ATOM     68  N1   DG A   3      99.136 156.712 169.351  1.00  0.00    -0.153 N 
ATOM     69  H1   DG A   3      99.015 157.414 170.063  1.00  0.00     0.187 HD
ATOM     70  C6   DG A   3      97.995 156.267 168.691  1.00  0.00     0.292 A 
ATOM     71  O6   DG A   3      96.892 156.739 168.988  1.00  0.00    -0.265 OA
ATOM     72  C5   DG A   3      98.307 155.278 167.721  1.00  0.00     0.173 A 
ATOM     73  N7   DG A   3      97.481 154.575 166.853  1.00  0.00    -0.234 NA
ATOM     74  C8   DG A   3      98.296 153.801 166.190  1.00  0.00     0.214 A 
ATOM     75  C2'  DG A   3     101.476 152.363 167.059  1.00  0.00     0.199 C 
ATOM     76  O2'  DG A   3     102.874 152.472 166.862  1.00  0.00    -0.388 OA
ATOM     77 2'HO  DG A   3     103.231 151.586 166.934  1.00  0.00     0.210 HD
ATOM     78  C3'  DG A   3     100.973 150.975 166.672  1.00  0.00     0.198 C 
ATOM     79  O3'  DG A   3     101.875 149.943 167.065  1.00  0.00    -0.279 OA
ATOM     80  P    DG A   4     101.730 149.264 168.518  1.00  0.00     0.408 P 
ATOM     81  OP1  DG A   4     102.900 148.367 168.702  1.00  0.00    -0.624 OA
ATOM     82  OP2  DG A   4     100.357 148.712 168.642  1.00  0.00    -0.624 OA
ATOM     83  O5'  DG A   4     101.874 150.484 169.535  1.00  0.00    -0.287 OA
ATOM     84  C5'  DG A   4     103.113 151.178 169.679  1.00  0.00     0.216 C 
ATOM     85  C4'  DG A   4     103.079 152.062 170.905  1.00  0.00     0.180 C 
ATOM     86  O4'  DG A   4     102.348 153.277 170.599  1.00  0.00    -0.353 OA
ATOM     87  C1'  DG A   4     101.731 153.762 171.779  1.00  0.00     0.262 C 
ATOM     88  N9   DG A   4     100.307 153.947 171.515  1.00  0.00    -0.293 N 
ATOM     89  C4   DG A   4      99.465 154.812 172.170  1.00  0.00     0.187 A 
ATOM     90  N3   DG A   4      99.810 155.646 173.172  1.00  0.00    -0.044 NA
ATOM     91  C2   DG A   4      98.782 156.354 173.601  1.00  0.00     0.703 A 
ATOM     92  N2   DG A   4      98.953 157.238 174.586  1.00  0.00    -0.233 N 
ATOM     93  H21  DG A   4      99.871 157.353 174.990  1.00  0.00     0.174 HD
ATOM     94  H22  DG A   4      98.176 157.787 174.924  1.00  0.00     0.174 HD
ATOM     95  N1   DG A   4      97.512 156.249 173.093  1.00  0.00    -0.153 N 
ATOM     96  H1   DG A   4      96.793 156.830 173.494  1.00  0.00     0.187 HD
ATOM     97  C6   DG A   4      97.132 155.399 172.061  1.00  0.00     0.292 A 
ATOM     98  O6   DG A   4      95.957 155.387 171.677  1.00  0.00    -0.265 OA
ATOM     99  C5   DG A   4      98.229 154.631 171.586  1.00  0.00     0.173 A 
ATOM    100  N7   DG A   4      98.292 153.674 170.582  1.00  0.00    -0.234 NA
ATOM    101  C8   DG A   4      99.543 153.299 170.576  1.00  0.00     0.214 A 
ATOM    102  C2'  DG A   4     102.015 152.763 172.904  1.00  0.00     0.199 C 
ATOM    103  O2'  DG A   4     103.138 153.220 173.635  1.00  0.00    -0.388 OA
ATOM    104 2'HO  DG A   4     103.208 152.670 174.416  1.00  0.00     0.210 HD
ATOM    105  C3'  DG A   4     102.344 151.501 172.113  1.00  0.00     0.198 C 
ATOM    106  O3'  DG A   4     103.156 150.589 172.850  1.00  0.00    -0.279 OA
ATOM    107  P    DG A   5     102.476 149.346 173.615  1.00  0.00     0.408 P 
ATOM    108  OP1  DG A   5     103.509 148.285 173.728  1.00  0.00    -0.624 OA
ATOM    109  OP2  DG A   5     101.176 149.035 172.966  1.00  0.00    -0.624 OA
ATOM    110  O5'  DG A   5     102.176 149.906 175.079  1.00  0.00    -0.287 OA
ATOM    111  C5'  DG A   5     103.181 149.892 176.093  1.00  0.00     0.216 C 
ATOM    112  C4'  DG A   5     103.041 151.105 176.986  1.00  0.00     0.180 C 
ATOM    113  O4'  DG A   5     102.527 152.215 176.203  1.00  0.00    -0.353 OA
ATOM    114  C1'  DG A   5     101.672 153.010 177.006  1.00  0.00     0.262 C 
ATOM    115  N9   DG A   5     100.348 153.033 176.392  1.00  0.00    -0.293 N 
ATOM    116  C4   DG A   5      99.408 154.027 176.517  1.00  0.00     0.187 A 
ATOM    117  N3   DG A   5      99.545 155.165 177.230  1.00  0.00    -0.044 NA
ATOM    118  C2   DG A   5      98.470 155.926 177.156  1.00  0.00     0.703 A 
ATOM    119  N2   DG A   5      98.436 157.094 177.804  1.00  0.00    -0.233 N 
ATOM    120  H21  DG A   5      99.237 157.383 178.346  1.00  0.00     0.174 HD
ATOM    121  H22  DG A   5      97.622 157.689 177.749  1.00  0.00     0.174 HD
ATOM    122  N1   DG A   5      97.346 155.601 176.442  1.00  0.00    -0.153 N 
ATOM    123  H1   DG A   5      96.582 156.260 176.451  1.00  0.00     0.187 HD
ATOM    124  C6   DG A   5      97.178 154.437 175.703  1.00  0.00     0.292 A 
ATOM    125  O6   DG A   5      96.120 154.243 175.097  1.00  0.00    -0.265 OA
ATOM    126  C5   DG A   5      98.328 153.606 175.770  1.00  0.00     0.173 A 
ATOM    127  N7   DG A   5      98.583 152.371 175.188  1.00  0.00    -0.234 NA
ATOM    128  C8   DG A   5      99.790 152.072 175.584  1.00  0.00     0.214 A 
ATOM    129  C2'  DG A   5     101.676 152.420 178.417  1.00  0.00     0.199 C 
ATOM    130  O2'  DG A   5     102.679 153.068 179.176  1.00  0.00    -0.388 OA
ATOM    131 2'HO  DG A   5     103.157 152.381 179.641  1.00  0.00     0.210 HD
ATOM    132  C3'  DG A   5     102.050 150.971 178.134  1.00  0.00     0.198 C 
ATOM    133  O3'  DG A   5     102.635 150.335 179.268  1.00  0.00    -0.279 OA
ATOM    134  P    DT A   6     101.701 149.540 180.310  1.00  0.00     0.408 P 
ATOM    135  OP1  DT A   6     102.504 149.307 181.537  1.00  0.00    -0.624 OA
ATOM    136  OP2  DT A   6     101.093 148.386 179.601  1.00  0.00    -0.624 OA
ATOM    137  O5'  DT A   6     100.541 150.576 180.661  1.00  0.00    -0.287 OA
ATOM    138  C5'  DT A   6     100.791 151.710 181.490  1.00  0.00     0.216 C 
ATOM    139  C4'  DT A   6      99.487 152.323 181.946  1.00  0.00     0.180 C 
ATOM    140  O4'  DT A   6      98.886 153.058 180.847  1.00  0.00    -0.353 OA
ATOM    141  C1'  DT A   6      97.473 152.995 180.952  1.00  0.00     0.264 C 
ATOM    142  N1   DT A   6      96.937 152.411 179.713  1.00  0.00    -0.280 N 
ATOM    143  C6   DT A   6      97.722 151.643 178.881  1.00  0.00     0.104 A 
ATOM    144  C2   DT A   6      95.611 152.657 179.412  1.00  0.00     0.331 A 
ATOM    145  O2   DT A   6      94.884 153.332 180.118  1.00  0.00    -0.246 OA
ATOM    146  N3   DT A   6      95.163 152.084 178.250  1.00  0.00    -0.275 N 
ATOM    147  H3   DT A   6      94.191 152.231 178.022  1.00  0.00     0.173 HD
ATOM    148  C4   DT A   6      95.889 151.311 177.375  1.00  0.00     0.250 A 
ATOM    149  O4   DT A   6      95.343 150.873 176.362  1.00  0.00    -0.268 OA
ATOM    150  C5   DT A   6      97.252 151.102 177.753  1.00  0.00     0.092 A 
ATOM    151  C2'  DT A   6      97.138 152.181 182.203  1.00  0.00     0.199 C 
ATOM    152  O2'  DT A   6      96.980 153.072 183.291  1.00  0.00    -0.388 OA
ATOM    153 2'HO  DT A   6      96.405 152.638 183.924  1.00  0.00     0.210 HD
ATOM    154  C3'  DT A   6      98.400 151.340 182.352  1.00  0.00     0.198 C 
ATOM    155  O3'  DT A   6      98.587 150.859 183.680  1.00  0.00    -0.279 OA
ATOM    156  P    DG A   7      98.000 149.421 184.098  1.00  0.00     0.408 P 
ATOM    157  OP1  DG A   7      98.513 149.114 185.458  1.00  0.00    -0.624 OA
ATOM    158  OP2  DG A   7      98.252 148.467 182.988  1.00  0.00    -0.624 OA
ATOM    159  O5'  DG A   7      96.429 149.660 184.202  1.00  0.00    -0.287 OA
ATOM    160  C5'  DG A   7      95.871 150.422 185.271  1.00  0.00     0.216 C 
ATOM    161  C4'  DG A   7      94.399 150.671 185.028  1.00  0.00     0.180 C 
ATOM    162  O4'  DG A   7      94.217 151.308 183.739  1.00  0.00    -0.353 OA
ATOM    163  C1'  DG A   7      92.932 150.982 183.236  1.00  0.00     0.262 C 
ATOM    164  N9   DG A   7      93.080 150.482 181.872  1.00  0.00    -0.293 N 
ATOM    165  C4   DG A   7      92.091 150.406 180.920  1.00  0.00     0.187 A 
ATOM    166  N3   DG A   7      90.806 150.785 181.080  1.00  0.00    -0.044 NA
ATOM    167  C2   DG A   7      90.095 150.591 179.984  1.00  0.00     0.703 A 
ATOM    168  N2   DG A   7      88.800 150.914 179.967  1.00  0.00    -0.233 N 
ATOM    169  H21  DG A   7      88.375 151.305 180.796  1.00  0.00     0.174 HD
ATOM    170  H22  DG A   7      88.243 150.760 179.137  1.00  0.00     0.174 HD
ATOM    171  N1   DG A   7      90.601 150.066 178.823  1.00  0.00    -0.153 N 
ATOM    172  H1   DG A   7      89.968 149.960 178.045  1.00  0.00     0.187 HD
ATOM    173  C6   DG A   7      91.919 149.668 178.634  1.00  0.00     0.292 A 
ATOM    174  O6   DG A   7      92.270 149.204 177.544  1.00  0.00    -0.265 OA
ATOM    175  C5   DG A   7      92.697 149.872 179.804  1.00  0.00     0.173 A 
ATOM    176  N7   DG A   7      94.041 149.615 180.047  1.00  0.00    -0.234 NA
ATOM    177  C8   DG A   7      94.220 149.991 181.285  1.00  0.00     0.214 A 
ATOM    178  C2'  DG A   7      92.299 149.965 184.189  1.00  0.00     0.199 C 
ATOM    179  O2'  DG A   7      91.429 150.652 185.070  1.00  0.00    -0.388 OA
ATOM    180 2'HO  DG A   7      90.855 149.991 185.460  1.00  0.00     0.210 HD
ATOM    181  C3'  DG A   7      93.523 149.434 184.928  1.00  0.00     0.198 C 
ATOM    182  O3'  DG A   7      93.197 148.906 186.211  1.00  0.00    -0.279 OA
ATOM    183  P    DT A   8      92.723 147.375 186.349  1.00  0.00     0.408 P 
ATOM    184  OP1  DT A   8      92.293 147.169 187.755  1.00  0.00    -0.624 OA
ATOM    185  OP2  DT A   8      93.779 146.505 185.769  1.00  0.00    -0.624 OA
ATOM    186  O5'  DT A   8      91.437 147.282 185.411  1.00  0.00    -0.287 OA
ATOM    187  C5'  DT A   8      90.119 147.331 185.958  1.00  0.00     0.216 C 
ATOM    188  C4'  DT A   8      89.145 147.878 184.937  1.00  0.00     0.180 C 
ATOM    189  O4'  DT A   8      89.881 148.467 183.834  1.00  0.00    -0.353 OA
ATOM    190  C1'  DT A   8      89.161 148.284 182.627  1.00  0.00     0.264 C 
ATOM    191  N1   DT A   8      90.025 147.577 181.671  1.00  0.00    -0.280 N 
ATOM    192  C6   DT A   8      91.221 147.018 182.065  1.00  0.00     0.104 A 
ATOM    193  C2   DT A   8      89.598 147.490 180.358  1.00  0.00     0.331 A 
ATOM    194  O2   DT A   8      88.548 147.968 179.970  1.00  0.00    -0.246 OA
ATOM    195  N3   DT A   8      90.447 146.823 179.515  1.00  0.00    -0.275 N 
ATOM    196  H3   DT A   8      90.153 146.747 178.554  1.00  0.00     0.173 HD
ATOM    197  C4   DT A   8      91.653 146.246 179.838  1.00  0.00     0.250 A 
ATOM    198  O4   DT A   8      92.305 145.681 178.960  1.00  0.00    -0.268 OA
ATOM    199  C5   DT A   8      92.025 146.375 181.212  1.00  0.00     0.092 A 
ATOM    200  C2'  DT A   8      87.869 147.535 182.961  1.00  0.00     0.199 C 
ATOM    201  O2'  DT A   8      86.837 148.483 183.160  1.00  0.00    -0.388 OA
ATOM    202 2'HO  DT A   8      86.567 148.409 184.075  1.00  0.00     0.210 HD
ATOM    203  C3'  DT A   8      88.246 146.847 184.270  1.00  0.00     0.198 C 
ATOM    204  O3'  DT A   8      87.112 146.547 185.080  1.00  0.00    -0.279 OA
ATOM    205  P    DA A   9      86.121 145.348 184.665  1.00  0.00     0.408 P 
ATOM    206  OP1  DA A   9      86.114 145.260 183.183  1.00  0.00    -0.624 OA
ATOM    207  OP2  DA A   9      84.840 145.554 185.390  1.00  0.00    -0.624 OA
ATOM    208  O5'  DA A   9      86.817 144.044 185.261  1.00  0.00    -0.287 OA
ATOM    209  C5'  DA A   9      87.765 143.293 184.500  1.00  0.00     0.216 C 
ATOM    210  C4'  DA A   9      87.053 142.310 183.600  1.00  0.00     0.180 C 
ATOM    211  O4'  DA A   9      86.894 142.925 182.292  1.00  0.00    -0.353 OA
ATOM    212  C1'  DA A   9      87.270 142.014 181.281  1.00  0.00     0.262 C 
ATOM    213  N9   DA A   9      88.516 142.490 180.676  1.00  0.00    -0.294 N 
ATOM    214  C4   DA A   9      89.789 142.042 180.944  1.00  0.00     0.167 A 
ATOM    215  N3   DA A   9      90.150 141.084 181.814  1.00  0.00    -0.222 NA
ATOM    216  C2   DA A   9      91.469 140.918 181.808  1.00  0.00     0.237 A 
ATOM    217  N1   DA A   9      92.400 141.551 181.084  1.00  0.00    -0.222 NA
ATOM    218  C6   DA A   9      92.003 142.507 180.217  1.00  0.00     0.155 A 
ATOM    219  N6   DA A   9      92.931 143.134 179.496  1.00  0.00    -0.382 N 
ATOM    220  H61  DA A   9      92.662 143.854 178.840  1.00  0.00     0.157 HD
ATOM    221  H62  DA A   9      93.900 142.878 179.605  1.00  0.00     0.157 HD
ATOM    222  C5   DA A   9      90.627 142.783 180.132  1.00  0.00     0.149 A 
ATOM    223  N7   DA A   9      89.899 143.683 179.365  1.00  0.00    -0.236 NA
ATOM    224  C8   DA A   9      88.657 143.471 179.726  1.00  0.00     0.214 A 
ATOM    225  C2'  DA A   9      87.370 140.634 181.930  1.00  0.00     0.199 C 
ATOM    226  O2'  DA A   9      86.087 140.038 181.912  1.00  0.00    -0.388 OA
ATOM    227 2'HO  DA A   9      86.137 139.240 182.439  1.00  0.00     0.210 HD
ATOM    228  C3'  DA A   9      87.796 141.002 183.347  1.00  0.00     0.198 C 
ATOM    229  O3'  DA A   9      87.432 140.000 184.295  1.00  0.00    -0.279 OA
ATOM    230  P    DG A  10      88.432 138.772 184.590  1.00  0.00     0.408 P 
ATOM    231  OP1  DG A  10      89.635 138.932 183.731  1.00  0.00    -0.624 OA
ATOM    232  OP2  DG A  10      88.594 138.652 186.061  1.00  0.00    -0.624 OA
ATOM    233  O5'  DG A  10      87.636 137.490 184.074  1.00  0.00    -0.287 OA
ATOM    234  C5'  DG A  10      86.369 137.135 184.627  1.00  0.00     0.216 C 
ATOM    235  C4'  DG A  10      85.378 136.845 183.522  1.00  0.00     0.180 C 
ATOM    236  O4'  DG A  10      85.896 137.362 182.267  1.00  0.00    -0.353 OA
ATOM    237  C1'  DG A  10      85.571 136.474 181.211  1.00  0.00     0.262 C 
ATOM    238  N9   DG A  10      86.814 135.965 180.638  1.00  0.00    -0.293 N 
ATOM    239  C4   DG A  10      86.928 135.134 179.550  1.00  0.00     0.187 A 
ATOM    240  N3   DG A  10      85.908 134.640 178.819  1.00  0.00    -0.044 NA
ATOM    241  C2   DG A  10      86.334 133.869 177.834  1.00  0.00     0.703 A 
ATOM    242  N2   DG A  10      85.451 133.295 177.012  1.00  0.00    -0.233 N 
ATOM    243  H21  DG A  10      84.466 133.458 177.155  1.00  0.00     0.174 HD
ATOM    244  H22  DG A  10      85.766 132.709 176.250  1.00  0.00     0.174 HD
ATOM    245  N1   DG A  10      87.655 133.604 177.582  1.00  0.00    -0.153 N 
ATOM    246  H1   DG A  10      87.874 133.005 176.802  1.00  0.00     0.187 HD
ATOM    247  C6   DG A  10      88.724 134.101 178.320  1.00  0.00     0.292 A 
ATOM    248  O6   DG A  10      89.880 133.793 178.007  1.00  0.00    -0.265 OA
ATOM    249  C5   DG A  10      88.283 134.931 179.384  1.00  0.00     0.173 A 
ATOM    250  N7   DG A  10      89.006 135.619 180.351  1.00  0.00    -0.234 NA
ATOM    251  C8   DG A  10      88.094 136.216 181.069  1.00  0.00     0.214 A 
ATOM    252  C2'  DG A  10      84.672 135.382 181.789  1.00  0.00     0.199 C 
ATOM    253  O2'  DG A  10      83.323 135.795 181.672  1.00  0.00    -0.388 OA
ATOM    254 2'HO  DG A  10      82.963 135.825 182.558  1.00  0.00     0.210 HD
ATOM    255  C3'  DG A  10      85.118 135.369 183.246  1.00  0.00     0.198 C 
ATOM    256  O3'  DG A  10      84.118 134.841 184.115  1.00  0.00    -0.279 OA
ATOM    257  P    DC A  11      84.282 133.359 184.720  1.00  0.00     0.408 P 
ATOM    258  OP1  DC A  11      83.239 133.192 185.763  1.00  0.00    -0.624 OA
ATOM    259  OP2  DC A  11      85.710 133.149 185.070  1.00  0.00    -0.624 OA
ATOM    260  O5'  DC A  11      83.925 132.398 183.498  1.00  0.00    -0.287 OA
ATOM    261  C5'  DC A  11      82.595 132.324 182.984  1.00  0.00     0.216 C 
ATOM    262  C4'  DC A  11      82.505 131.254 181.921  1.00  0.00     0.180 C 
ATOM    263  O4'  DC A  11      83.153 131.743 180.714  1.00  0.00    -0.353 OA
ATOM    264  C1'  DC A  11      83.953 130.719 180.150  1.00  0.00     0.264 C 
ATOM    265  N1   DC A  11      85.368 131.100 180.291  1.00  0.00    -0.278 N 
ATOM    266  C6   DC A  11      85.753 132.032 181.215  1.00  0.00     0.102 A 
ATOM    267  C2   DC A  11      86.315 130.497 179.463  1.00  0.00     0.352 A 
ATOM    268  O2   DC A  11      85.942 129.650 178.638  1.00  0.00    -0.244 OA
ATOM    269  N3   DC A  11      87.615 130.848 179.580  1.00  0.00    -0.177 NA
ATOM    270  C4   DC A  11      87.980 131.761 180.480  1.00  0.00     0.128 A 
ATOM    271  N4   DC A  11      89.272 132.078 180.556  1.00  0.00    -0.384 N 
ATOM    272  H41  DC A  11      89.590 132.765 181.224  1.00  0.00     0.157 HD
ATOM    273  H42  DC A  11      89.934 131.629 179.938  1.00  0.00     0.157 HD
ATOM    274  C5   DC A  11      87.036 132.391 181.342  1.00  0.00     0.067 A 
ATOM    275  C2'  DC A  11      83.592 129.420 180.866  1.00  0.00     0.199 C 
ATOM    276  O2'  DC A  11      82.478 128.838 180.213  1.00  0.00    -0.388 OA
ATOM    277 2'HO  DC A  11      81.813 128.684 180.884  1.00  0.00     0.210 HD
ATOM    278  C3'  DC A  11      83.213 129.943 182.246  1.00  0.00     0.198 C 
ATOM    279  O3'  DC A  11      82.362 129.043 182.949  1.00  0.00    -0.279 OA
ATOM    280  P    DT A  12      83.003 127.850 183.818  1.00  0.00     0.408 P 
ATOM    281  OP1  DT A  12      81.883 127.110 184.450  1.00  0.00    -0.624 OA
ATOM    282  OP2  DT A  12      84.081 128.417 184.669  1.00  0.00    -0.624 OA
ATOM    283  O5'  DT A  12      83.682 126.899 182.733  1.00  0.00    -0.287 OA
ATOM    284  C5'  DT A  12      82.891 126.190 181.779  1.00  0.00     0.216 C 
ATOM    285  C4'  DT A  12      83.729 125.143 181.082  1.00  0.00     0.180 C 
ATOM    286  O4'  DT A  12      84.546 125.792 180.070  1.00  0.00    -0.353 OA
ATOM    287  C1'  DT A  12      85.836 125.204 180.044  1.00  0.00     0.264 C 
ATOM    288  N1   DT A  12      86.817 126.224 180.440  1.00  0.00    -0.280 N 
ATOM    289  C6   DT A  12      86.502 127.196 181.360  1.00  0.00     0.104 A 
ATOM    290  C2   DT A  12      88.070 126.176 179.855  1.00  0.00     0.331 A 
ATOM    291  O2   DT A  12      88.388 125.334 179.035  1.00  0.00    -0.246 OA
ATOM    292  N3   DT A  12      88.938 127.153 180.267  1.00  0.00    -0.275 N 
ATOM    293  H3   DT A  12      89.861 127.130 179.856  1.00  0.00     0.173 HD
ATOM    294  C4   DT A  12      88.690 128.152 181.179  1.00  0.00     0.250 A 
ATOM    295  O4   DT A  12      89.578 128.960 181.449  1.00  0.00    -0.268 OA
ATOM    296  C5   DT A  12      87.374 128.135 181.736  1.00  0.00     0.092 A 
ATOM    297  C2'  DT A  12      85.803 123.989 180.972  1.00  0.00     0.199 C 
ATOM    298  O2'  DT A  12      85.401 122.858 180.223  1.00  0.00    -0.388 OA
ATOM    299 2'HO  DT A  12      85.007 122.242 180.840  1.00  0.00     0.210 HD
ATOM    300  C3'  DT A  12      84.727 124.407 181.967  1.00  0.00     0.198 C 
ATOM    301  O3'  DT A  12      84.127 123.293 182.621  1.00  0.00    -0.279 OA
ATOM    302  P    DC A  13      84.828 122.658 183.921  1.00  0.00     0.408 P 
ATOM    303  OP1  DC A  13      83.904 121.626 184.458  1.00  0.00    -0.624 OA
ATOM    304  OP2  DC A  13      85.277 123.769 184.800  1.00  0.00    -0.624 OA
ATOM    305  O5'  DC A  13      86.112 121.914 183.339  1.00  0.00    -0.287 OA
ATOM    306  C5'  DC A  13      87.426 122.240 183.792  1.00  0.00     0.216 C 
ATOM    307  C4'  DC A  13      88.412 122.123 182.654  1.00  0.00     0.180 C 
ATOM    308  O4'  DC A  13      88.455 123.389 181.940  1.00  0.00    -0.353 OA
ATOM    309  C1'  DC A  13      89.796 123.716 181.620  1.00  0.00     0.264 C 
ATOM    310  N1   DC A  13      90.177 124.918 182.383  1.00  0.00    -0.278 N 
ATOM    311  C6   DC A  13      89.314 125.482 183.279  1.00  0.00     0.102 A 
ATOM    312  C2   DC A  13      91.445 125.474 182.179  1.00  0.00     0.352 A 
ATOM    313  O2   DC A  13      92.209 124.947 181.357  1.00  0.00    -0.244 OA
ATOM    314  N3   DC A  13      91.806 126.569 182.881  1.00  0.00    -0.177 NA
ATOM    315  C4   DC A  13      90.956 127.111 183.754  1.00  0.00     0.128 A 
ATOM    316  C5   DC A  13      89.658 126.570 183.981  1.00  0.00     0.067 A 
ATOM    317  C2'  DC A  13      90.651 122.489 181.934  1.00  0.00     0.199 C 
ATOM    318  C3'  DC A  13      89.854 121.858 183.070  1.00  0.00     0.198 C 
ENDROOT
BRANCH 318 319
ATOM    319  O3'  DC A  13      90.114 120.464 183.203  1.00  0.00    -0.279 OA
BRANCH 319 320
ATOM    320  P    DA A  14      91.295 119.960 184.172  1.00  0.00     0.408 P 
ATOM    321  OP2  DA A  14      90.688 119.141 185.250  1.00  0.00    -0.624 OA
ATOM    322  OP1  DA A  14      92.352 119.372 183.310  1.00  0.00    -0.624 OA
BRANCH 320 323
ATOM    323  O5'  DA A  14      91.856 121.303 184.823  1.00  0.00    -0.287 OA
BRANCH 323 324
ATOM    324  C5'  DA A  14      93.148 121.806 184.486  1.00  0.00     0.216 C 
BRANCH 324 325
ATOM    325  C4'  DA A  14      93.580 122.852 185.487  1.00  0.00     0.180 C 
ATOM    326  C3'  DA A  14      93.495 122.424 186.947  1.00  0.00     0.198 C 
ATOM    327  C2'  DA A  14      93.276 123.746 187.668  1.00  0.00     0.199 C 
ATOM    328  C1'  DA A  14      92.365 124.472 186.678  1.00  0.00     0.262 C 
ATOM    329  O4'  DA A  14      92.690 123.997 185.384  1.00  0.00    -0.353 OA
BRANCH 326 330
ATOM    330  O3'  DA A  14      94.684 121.765 187.374  1.00  0.00    -0.279 OA
BRANCH 330 331
ATOM    331  P    DG A  15      96.013 121.852 186.471  1.00  0.00     0.408 P 
ATOM    332  OP2  DG A  15      96.011 120.706 185.527  1.00  0.00    -0.624 OA
ATOM    333  OP1  DG A  15      96.096 123.237 185.942  1.00  0.00    -0.624 OA
BRANCH 331 334
ATOM    334  O5'  DG A  15      97.203 121.640 187.510  1.00  0.00    -0.287 OA
BRANCH 334 335
ATOM    335  C5'  DG A  15      98.405 122.405 187.420  1.00  0.00     0.216 C 
BRANCH 335 336
ATOM    336  C4'  DG A  15      99.612 121.497 187.502  1.00  0.00     0.180 C 
ATOM    337  C3'  DG A  15     100.168 121.260 188.900  1.00  0.00     0.198 C 
ATOM    338  C2'  DG A  15     101.614 120.879 188.599  1.00  0.00     0.199 C 
ATOM    339  C1'  DG A  15     101.933 121.872 187.485  1.00  0.00     0.262 C 
ATOM    340  O4'  DG A  15     100.721 122.113 186.786  1.00  0.00    -0.353 OA
BRANCH 337 341
ATOM    341  O3'  DG A  15      99.401 120.293 189.639  1.00  0.00    -0.279 OA
BRANCH 341 342
ATOM    342  P    DT A  16      99.266 120.388 191.245  1.00  0.00     0.408 P 
ATOM    343  OP2  DT A  16     100.206 121.446 191.695  1.00  0.00    -0.624 OA
ATOM    344  OP1  DT A  16      97.829 120.493 191.603  1.00  0.00    -0.624 OA
BRANCH 342 345
ATOM    345  O5'  DT A  16      99.822 118.988 191.766  1.00  0.00    -0.287 OA
BRANCH 345 346
ATOM    346  C5'  DT A  16     100.401 118.040 190.870  1.00  0.00     0.216 C 
BRANCH 346 347
ATOM    347  C4'  DT A  16     100.001 116.636 191.265  1.00  0.00     0.180 C 
ATOM    348  C3'  DT A  16      99.457 115.769 190.138  1.00  0.00     0.198 C 
ATOM    349  C2'  DT A  16      98.583 114.767 190.886  1.00  0.00     0.199 C 
ATOM    350  C1'  DT A  16      98.009 115.642 192.002  1.00  0.00     0.264 C 
ATOM    351  O4'  DT A  16      98.911 116.711 192.221  1.00  0.00    -0.353 OA
BRANCH 348 352
ATOM    352  O3'  DT A  16     100.502 115.130 189.408  1.00  0.00    -0.279 OA
BRANCH 352 353
ATOM    353  P    DT A  17     100.769 115.530 187.872  1.00  0.00     0.408 P 
ATOM    354  OP2  DT A  17     101.164 116.960 187.809  1.00  0.00    -0.624 OA
ATOM    355  OP1  DT A  17     101.672 114.496 187.305  1.00  0.00    -0.624 OA
BRANCH 353 356
ATOM    356  O5'  DT A  17      99.346 115.365 187.169  1.00  0.00    -0.287 OA
BRANCH 356 357
ATOM    357  C5'  DT A  17      99.215 114.756 185.882  1.00  0.00     0.216 C 
BRANCH 357 358
ATOM    358  C4'  DT A  17      98.184 113.649 185.926  1.00  0.00     0.180 C 
ATOM    359  C3'  DT A  17      97.564 113.285 184.581  1.00  0.00     0.198 C 
ATOM    360  C2'  DT A  17      96.327 114.176 184.523  1.00  0.00     0.199 C 
ATOM    361  C1'  DT A  17      95.894 114.170 185.986  1.00  0.00     0.264 C 
ATOM    362  O4'  DT A  17      97.073 114.079 186.762  1.00  0.00    -0.353 OA
BRANCH 359 363
ATOM    363  O3'  DT A  17      97.246 111.895 184.524  1.00  0.00    -0.279 OA
BRANCH 363 364
ATOM    364  P    DG A  18      98.185 110.889 183.690  1.00  0.00     0.408 P 
ATOM    365  OP2  DG A  18      97.776 110.951 182.263  1.00  0.00    -0.624 OA
ATOM    366  OP1  DG A  18      99.597 111.165 184.063  1.00  0.00    -0.624 OA
BRANCH 364 367
ATOM    367  O5'  DG A  18      97.802 109.449 184.258  1.00  0.00    -0.287 OA
BRANCH 367 368
ATOM    368  C5'  DG A  18      97.545 108.356 183.377  1.00  0.00     0.216 C 
BRANCH 368 369
ATOM    369  C4'  DG A  18      96.806 107.261 184.111  1.00  0.00     0.180 C 
ATOM    370  O4'  DG A  18      95.883 107.877 185.051  1.00  0.00    -0.353 OA
ATOM    371  C1'  DG A  18      94.551 107.678 184.616  1.00  0.00     0.262 C 
ATOM    372  C2'  DG A  18      94.611 107.107 183.200  1.00  0.00     0.199 C 
ATOM    373  C3'  DG A  18      95.939 106.360 183.238  1.00  0.00     0.198 C 
BRANCH 371 374
ATOM    374  N9   DG A  18      93.846 108.953 184.709  1.00  0.00    -0.293 N 
ATOM    375  C4   DG A  18      92.526 109.136 185.043  1.00  0.00     0.187 A 
ATOM    376  C5   DG A  18      92.322 110.498 184.997  1.00  0.00     0.173 A 
ATOM    377  N3   DG A  18      91.644 108.162 185.347  1.00  0.00    -0.044 NA
ATOM    378  C6   DG A  18      91.031 111.007 185.299  1.00  0.00     0.292 A 
ATOM    379  N7   DG A  18      93.490 111.160 184.640  1.00  0.00    -0.234 NA
ATOM    380  N1   DG A  18      90.140 109.986 185.610  1.00  0.00    -0.153 N 
ATOM    381  O6   DG A  18      90.648 112.181 185.314  1.00  0.00    -0.265 OA
ATOM    382  C2   DG A  18      90.448 108.650 185.626  1.00  0.00     0.703 A 
ATOM    383  H1   DG A  18      89.197 110.255 185.838  1.00  0.00     0.187 HD
ATOM    384  C8   DG A  18      94.364 110.205 184.481  1.00  0.00     0.214 A 
BRANCH 382 385
ATOM    385  N2   DG A  18      89.454 107.819 185.949  1.00  0.00    -0.233 N 
ATOM    386  H21  DG A  18      89.612 106.823 185.904  1.00  0.00     0.174 HD
ATOM    387  H22  DG A  18      88.556 108.181 186.234  1.00  0.00     0.174 HD
ENDBRANCH 382 385
ENDBRANCH 371 374
BRANCH 372 388
ATOM    388  O2'  DG A  18      93.526 106.217 183.024  1.00  0.00    -0.388 OA
ATOM    389 2'HO  DG A  18      93.879 105.428 182.608  1.00  0.00     0.210 HD
ENDBRANCH 372 388
BRANCH 373 390
ATOM    390  O3'  DG A  18      95.809 105.054 183.798  1.00  0.00    -0.279 OA
BRANCH 390 391
ATOM    391  P    DG A  19      96.811 103.883 183.336  1.00  0.00     0.408 P 
ATOM    392  OP1  DG A  19      98.146 104.199 183.905  1.00  0.00    -0.624 OA
ATOM    393  OP2  DG A  19      96.668 103.690 181.870  1.00  0.00    -0.624 OA
BRANCH 391 394
ATOM    394  O5'  DG A  19      96.262 102.585 184.082  1.00  0.00    -0.287 OA
BRANCH 394 395
ATOM    395  C5'  DG A  19      96.859 101.304 183.878  1.00  0.00     0.216 C 
BRANCH 395 396
ATOM    396  C4'  DG A  19      95.812 100.307 183.438  1.00  0.00     0.180 C 
ATOM    397  O4'  DG A  19      94.542 100.674 184.048  1.00  0.00    -0.353 OA
ATOM    398  C1'  DG A  19      93.583 100.929 183.041  1.00  0.00     0.262 C 
ATOM    399  C2'  DG A  19      94.363 101.200 181.758  1.00  0.00     0.199 C 
ATOM    400  C3'  DG A  19      95.552 100.262 181.934  1.00  0.00     0.198 C 
BRANCH 398 401
ATOM    401  N9   DG A  19      92.742 102.037 183.482  1.00  0.00    -0.293 N 
ATOM    402  C4   DG A  19      92.145 102.170 184.714  1.00  0.00     0.187 A 
ATOM    403  N3   DG A  19      92.230 101.291 185.734  1.00  0.00    -0.044 NA
ATOM    404  C5   DG A  19      91.463 103.368 184.663  1.00  0.00     0.173 A 
ATOM    405  C2   DG A  19      91.549 101.695 186.790  1.00  0.00     0.703 A 
ATOM    406  N1   DG A  19      90.840 102.868 186.845  1.00  0.00    -0.153 N 
ATOM    407  H1   DG A  19      90.354 103.086 187.700  1.00  0.00     0.187 HD
ATOM    408  C6   DG A  19      90.736 103.788 185.808  1.00  0.00     0.292 A 
ATOM    409  O6   DG A  19      90.067 104.815 185.963  1.00  0.00    -0.265 OA
ATOM    410  N7   DG A  19      91.626 103.976 183.426  1.00  0.00    -0.234 NA
ATOM    411  C8   DG A  19      92.390 103.153 182.762  1.00  0.00     0.214 A 
BRANCH 405 412
ATOM    412  N2   DG A  19      91.527 100.942 187.893  1.00  0.00    -0.233 N 
ATOM    413  H21  DG A  19      90.639 100.735 188.326  1.00  0.00     0.174 HD
ATOM    414  H22  DG A  19      92.383 100.585 188.289  1.00  0.00     0.174 HD
ENDBRANCH 405 412
ENDBRANCH 398 401
BRANCH 399 415
ATOM    415  O2'  DG A  19      93.568 100.812 180.652  1.00  0.00    -0.388 OA
ATOM    416 2'HO  DG A  19      94.176 100.582 179.949  1.00  0.00     0.210 HD
ENDBRANCH 399 415
BRANCH 400 417
ATOM    417  O3'  DG A  19      95.262  98.937 181.495  1.00  0.00    -0.279 OA
BRANCH 417 418
ATOM    418  P    DG A  20      95.927  98.377 180.141  1.00  0.00     0.408 P 
ATOM    419  OP2  DG A  20      94.961  98.565 179.029  1.00  0.00    -0.624 OA
ATOM    420  OP1  DG A  20      97.284  98.974 180.041  1.00  0.00    -0.624 OA
BRANCH 418 421
ATOM    421  O5'  DG A  20      96.089  96.815 180.405  1.00  0.00    -0.287 OA
BRANCH 421 422
ATOM    422  C5'  DG A  20      95.192  95.872 179.818  1.00  0.00     0.216 C 
BRANCH 422 423
ATOM    423  C4'  DG A  20      95.968  94.761 179.148  1.00  0.00     0.180 C 
ATOM    424  C3'  DG A  20      95.844  93.389 179.801  1.00  0.00     0.198 C 
ATOM    425  C2'  DG A  20      97.167  92.727 179.437  1.00  0.00     0.199 C 
ATOM    426  C1'  DG A  20      98.124  93.914 179.539  1.00  0.00     0.262 C 
ATOM    427  O4'  DG A  20      97.387  95.078 179.210  1.00  0.00    -0.353 OA
BRANCH 424 428
ATOM    428  O3'  DG A  20      94.723  92.666 179.302  1.00  0.00    -0.279 OA
BRANCH 428 429
ATOM    429  P    DA A  21      93.733  91.920 180.328  1.00  0.00     0.408 P 
ATOM    430  OP2  DA A  21      92.501  91.537 179.593  1.00  0.00    -0.624 OA
ATOM    431  OP1  DA A  21      94.528  90.872 181.020  1.00  0.00    -0.624 OA
BRANCH 429 432
ATOM    432  O5'  DA A  21      93.362  93.040 181.399  1.00  0.00    -0.287 OA
BRANCH 432 433
ATOM    433  C5'  DA A  21      92.004  93.420 181.633  1.00  0.00     0.216 C 
BRANCH 433 434
ATOM    434  C4'  DA A  21      91.705  93.392 183.114  1.00  0.00     0.180 C 
ATOM    435  O4'  DA A  21      92.139  92.115 183.654  1.00  0.00    -0.353 OA
ATOM    436  C1'  DA A  21      92.674  92.301 184.952  1.00  0.00     0.262 C 
ATOM    437  C2'  DA A  21      92.505  93.775 185.324  1.00  0.00     0.199 C 
ATOM    438  C3'  DA A  21      92.438  94.432 183.949  1.00  0.00     0.198 C 
BRANCH 436 439
ATOM    439  N9   DA A  21      94.067  91.860 184.944  1.00  0.00    -0.294 N 
ATOM    440  C8   DA A  21      94.572  90.667 184.490  1.00  0.00     0.214 A 
ATOM    441  N7   DA A  21      95.874  90.565 184.609  1.00  0.00    -0.236 NA
ATOM    442  C5   DA A  21      96.251  91.771 185.182  1.00  0.00     0.149 A 
ATOM    443  C6   DA A  21      97.502  92.288 185.564  1.00  0.00     0.155 A 
ATOM    444  C4   DA A  21      95.149  92.577 185.396  1.00  0.00     0.167 A 
ATOM    445  N1   DA A  21      97.533  93.523 186.108  1.00  0.00    -0.222 NA
ATOM    446  C2   DA A  21      96.379  94.187 186.254  1.00  0.00     0.237 A 
ATOM    447  N3   DA A  21      95.143  93.809 185.934  1.00  0.00    -0.222 NA
BRANCH 443 448
ATOM    448  N6   DA A  21      98.652  91.629 185.418  1.00  0.00    -0.382 N 
ATOM    449  H61  DA A  21      98.863  90.847 186.021  1.00  0.00     0.157 HD
ATOM    450  H62  DA A  21      99.304  91.915 184.703  1.00  0.00     0.157 HD
ENDBRANCH 443 448
ENDBRANCH 436 439
BRANCH 437 451
ATOM    451  O2'  DA A  21      91.283  93.926 186.020  1.00  0.00    -0.388 OA
ATOM    452 2'HO  DA A  21      90.653  93.343 185.594  1.00  0.00     0.210 HD
ENDBRANCH 437 451
BRANCH 438 453
ATOM    453  O3'  DA A  21      91.734  95.671 183.977  1.00  0.00    -0.279 OA
BRANCH 453 454
ATOM    454  P    DG A  22      92.528  97.052 183.745  1.00  0.00     0.408 P 
ATOM    455  OP2  DG A  22      93.277  96.958 182.465  1.00  0.00    -0.624 OA
ATOM    456  OP1  DG A  22      91.555  98.154 183.946  1.00  0.00    -0.624 OA
BRANCH 454 457
ATOM    457  O5'  DG A  22      93.578  97.098 184.945  1.00  0.00    -0.287 OA
BRANCH 457 458
ATOM    458  C5'  DG A  22      93.485  98.085 185.972  1.00  0.00     0.216 C 
BRANCH 458 459
ATOM    459  C4'  DG A  22      93.991  97.521 187.279  1.00  0.00     0.180 C 
ATOM    460  O4'  DG A  22      95.448  97.565 187.275  1.00  0.00    -0.353 OA
ATOM    461  C1'  DG A  22      95.913  98.059 188.519  1.00  0.00     0.262 C 
ATOM    462  C2'  DG A  22      94.731  97.987 189.482  1.00  0.00     0.199 C 
ATOM    463  C3'  DG A  22      93.580  98.285 188.532  1.00  0.00     0.198 C 
BRANCH 461 464
ATOM    464  N9   DG A  22      96.427  99.411 188.318  1.00  0.00    -0.293 N 
ATOM    465  C8   DG A  22      95.956 100.353 187.436  1.00  0.00     0.214 A 
ATOM    466  N7   DG A  22      96.614 101.478 187.484  1.00  0.00    -0.234 NA
ATOM    467  C5   DG A  22      97.582 101.267 188.457  1.00  0.00     0.173 A 
ATOM    468  C4   DG A  22      97.480  99.995 188.981  1.00  0.00     0.187 A 
ATOM    469  C6   DG A  22      98.596 102.129 188.949  1.00  0.00     0.292 A 
ATOM    470  N3   DG A  22      98.235  99.416 189.939  1.00  0.00    -0.044 NA
ATOM    471  C2   DG A  22      99.173 100.231 190.386  1.00  0.00     0.703 A 
ATOM    472  N1   DG A  22      99.360 101.511 189.933  1.00  0.00    -0.153 N 
ATOM    473  H1   DG A  22     100.108 102.050 190.341  1.00  0.00     0.187 HD
ATOM    474  O6   DG A  22      98.848 103.293 188.616  1.00  0.00    -0.265 OA
BRANCH 471 475
ATOM    475  N2   DG A  22     100.014  99.819 191.339  1.00  0.00    -0.233 N 
ATOM    476  H21  DG A  22     100.744 100.440 191.658  1.00  0.00     0.174 HD
ATOM    477  H22  DG A  22      99.919  98.896 191.739  1.00  0.00     0.174 HD
ENDBRANCH 471 475
ENDBRANCH 461 464
BRANCH 462 478
ATOM    478  O2'  DG A  22      94.643  96.672 189.998  1.00  0.00    -0.388 OA
ATOM    479 2'HO  DG A  22      93.771  96.588 190.384  1.00  0.00     0.210 HD
ENDBRANCH 462 478
BRANCH 463 480
ATOM    480  O3'  DG A  22      92.324  97.835 189.038  1.00  0.00    -0.279 OA
BRANCH 480 481
ATOM    481  P    DA A  23      91.786  96.369 188.654  1.00  0.00     0.408 P 
ATOM    482  OP2  DA A  23      92.937  95.537 188.223  1.00  0.00    -0.624 OA
ATOM    483  OP1  DA A  23      90.926  95.906 189.773  1.00  0.00    -0.624 OA
BRANCH 481 484
ATOM    484  O5'  DA A  23      90.853  96.619 187.386  1.00  0.00    -0.287 OA
BRANCH 484 485
ATOM    485  C5'  DA A  23      89.466  96.909 187.539  1.00  0.00     0.216 C 
BRANCH 485 486
ATOM    486  C4'  DA A  23      89.238  98.403 187.511  1.00  0.00     0.180 C 
ATOM    487  O4'  DA A  23      89.575  98.910 186.189  1.00  0.00    -0.353 OA
ATOM    488  C1'  DA A  23      88.621  99.879 185.791  1.00  0.00     0.262 C 
ATOM    489  C2'  DA A  23      87.773 100.198 187.021  1.00  0.00     0.199 C 
ATOM    490  C3'  DA A  23      87.801  98.854 187.737  1.00  0.00     0.198 C 
BRANCH 488 491
ATOM    491  N9   DA A  23      87.852  99.337 184.669  1.00  0.00    -0.294 N 
ATOM    492  C8   DA A  23      87.926  98.073 184.138  1.00  0.00     0.214 A 
ATOM    493  N7   DA A  23      87.113  97.876 183.128  1.00  0.00    -0.236 NA
ATOM    494  C5   DA A  23      86.458  99.092 182.986  1.00  0.00     0.149 A 
ATOM    495  C6   DA A  23      85.468  99.533 182.092  1.00  0.00     0.155 A 
ATOM    496  C4   DA A  23      86.902 100.000 183.931  1.00  0.00     0.167 A 
ATOM    497  N1   DA A  23      85.027 100.804 182.220  1.00  0.00    -0.222 NA
ATOM    498  C2   DA A  23      85.552 101.569 183.185  1.00  0.00     0.237 A 
ATOM    499  N3   DA A  23      86.487 101.268 184.085  1.00  0.00    -0.222 NA
BRANCH 495 500
ATOM    500  N6   DA A  23      84.947  98.771 181.130  1.00  0.00    -0.382 N 
ATOM    501  H62  DA A  23      84.864  99.127 180.188  1.00  0.00     0.157 HD
ATOM    502  H61  DA A  23      84.632  97.837 181.348  1.00  0.00     0.157 HD
ENDBRANCH 495 500
ENDBRANCH 488 491
BRANCH 489 503
ATOM    503  O2'  DA A  23      88.429 101.198 187.777  1.00  0.00    -0.388 OA
ATOM    504 2'HO  DA A  23      89.175 101.493 187.255  1.00  0.00     0.210 HD
ENDBRANCH 489 503
BRANCH 490 505
ATOM    505  O3'  DA A  23      87.491  98.963 189.123  1.00  0.00    -0.279 OA
BRANCH 505 506
ATOM    506  P    DG A  24      86.156  98.277 189.701  1.00  0.00     0.408 P 
ATOM    507  OP1  DG A  24      86.251  98.305 191.182  1.00  0.00    -0.624 OA
ATOM    508  OP2  DG A  24      85.944  96.981 189.004  1.00  0.00    -0.624 OA
BRANCH 506 509
ATOM    509  O5'  DG A  24      84.993  99.273 189.260  1.00  0.00    -0.287 OA
BRANCH 509 510
ATOM    510  C5'  DG A  24      83.684  98.789 188.962  1.00  0.00     0.216 C 
BRANCH 510 511
ATOM    511  C4'  DG A  24      83.075  99.593 187.838  1.00  0.00     0.180 C 
ATOM    512  O4'  DG A  24      82.395 100.747 188.397  1.00  0.00    -0.353 OA
ATOM    513  C1'  DG A  24      82.547 101.858 187.530  1.00  0.00     0.262 C 
ATOM    514  C2'  DG A  24      83.327 101.393 186.300  1.00  0.00     0.199 C 
ATOM    515  C3'  DG A  24      84.072 100.181 186.850  1.00  0.00     0.198 C 
BRANCH 513 516
ATOM    516  N9   DG A  24      83.205 102.930 188.270  1.00  0.00    -0.293 N 
ATOM    517  C4   DG A  24      84.430 103.484 187.987  1.00  0.00     0.187 A 
ATOM    518  N3   DG A  24      85.247 103.128 186.975  1.00  0.00    -0.044 NA
ATOM    519  C5   DG A  24      84.622 104.457 188.946  1.00  0.00     0.173 A 
ATOM    520  C2   DG A  24      86.357 103.842 186.963  1.00  0.00     0.703 A 
ATOM    521  N1   DG A  24      86.644 104.830 187.869  1.00  0.00    -0.153 N 
ATOM    522  H1   DG A  24      87.522 105.316 187.771  1.00  0.00     0.187 HD
ATOM    523  C6   DG A  24      85.819 105.217 188.918  1.00  0.00     0.292 A 
ATOM    524  O6   DG A  24      86.176 106.123 189.678  1.00  0.00    -0.265 OA
ATOM    525  N7   DG A  24      83.542 104.511 189.817  1.00  0.00    -0.234 NA
ATOM    526  C8   DG A  24      82.730 103.587 189.379  1.00  0.00     0.214 A 
BRANCH 520 527
ATOM    527  N2   DG A  24      87.279 103.618 186.023  1.00  0.00    -0.233 N 
ATOM    528  H21  DG A  24      88.221 103.390 186.304  1.00  0.00     0.174 HD
ATOM    529  H22  DG A  24      87.042 103.682 185.043  1.00  0.00     0.174 HD
ENDBRANCH 520 527
ENDBRANCH 513 516
BRANCH 514 530
ATOM    530  O2'  DG A  24      82.405 101.010 185.296  1.00  0.00    -0.388 OA
ATOM    531 2'HO  DG A  24      81.640 101.576 185.399  1.00  0.00     0.210 HD
ENDBRANCH 514 530
BRANCH 515 532
ATOM    532  O3'  DG A  24      84.407  99.242 185.833  1.00  0.00    -0.279 OA
BRANCH 532 533
ATOM    533  P    DC A  25      83.299  98.204 185.308  1.00  0.00     0.408 P 
ATOM    534  OP2  DC A  25      82.111  98.306 186.193  1.00  0.00    -0.624 OA
ATOM    535  OP1  DC A  25      83.148  98.431 183.848  1.00  0.00    -0.624 OA
BRANCH 533 536
ATOM    536  O5'  DC A  25      83.973  96.778 185.532  1.00  0.00    -0.287 OA
BRANCH 536 537
ATOM    537  C5'  DC A  25      83.526  95.906 186.572  1.00  0.00     0.216 C 
BRANCH 537 538
ATOM    538  C4'  DC A  25      82.966  94.634 185.980  1.00  0.00     0.180 C 
ATOM    539  O4'  DC A  25      83.759  94.278 184.817  1.00  0.00    -0.353 OA
ATOM    540  C1'  DC A  25      83.909  92.872 184.749  1.00  0.00     0.264 C 
ATOM    541  C2'  DC A  25      83.099  92.253 185.890  1.00  0.00     0.199 C 
ATOM    542  C3'  DC A  25      83.025  93.408 186.884  1.00  0.00     0.198 C 
ATOM    543  O2'  DC A  25      81.813  91.920 185.402  1.00  0.00    -0.388 OA
ATOM    544  O3'  DC A  25      81.871  93.311 187.715  1.00  0.00    -0.279 OA
ATOM    545  P    DG A  26      81.804  94.128 189.101  1.00  0.00     0.408 P 
ATOM    546  OP1  DG A  26      80.566  94.947 189.062  1.00  0.00    -0.624 OA
ATOM    547  OP2  DG A  26      83.109  94.786 189.350  1.00  0.00    -0.624 OA
ATOM    548  O5'  DG A  26      81.605  92.999 190.208  1.00  0.00    -0.287 OA
ATOM    549  C5'  DG A  26      80.854  91.816 189.932  1.00  0.00     0.216 C 
ATOM    550  C4'  DG A  26      81.654  90.592 190.315  1.00  0.00     0.180 C 
ATOM    551  O4'  DG A  26      82.760  90.453 189.381  1.00  0.00    -0.353 OA
ATOM    552  C3'  DG A  26      82.301  90.645 191.693  1.00  0.00     0.198 C 
ATOM    553  C1'  DG A  26      83.941  90.106 190.082  1.00  0.00     0.262 C 
ATOM    554  N9   DG A  26      84.883  91.217 189.965  1.00  0.00    -0.293 N 
ATOM    555  C2'  DG A  26      83.541  89.776 191.519  1.00  0.00     0.199 C 
ATOM    556  C8   DG A  26      84.734  92.488 190.463  1.00  0.00     0.214 A 
ATOM    557  C4   DG A  26      86.098  91.192 189.324  1.00  0.00     0.187 A 
ATOM    558  N7   DG A  26      85.743  93.268 190.192  1.00  0.00    -0.234 NA
ATOM    559  C5   DG A  26      86.614  92.463 189.471  1.00  0.00     0.173 A 
ATOM    560  C6   DG A  26      87.880  92.756 188.900  1.00  0.00     0.292 A 
ATOM    561  N1   DG A  26      88.420  91.649 188.257  1.00  0.00    -0.153 N 
ATOM    562  O6   DG A  26      88.505  93.821 188.914  1.00  0.00    -0.265 OA
ATOM    563  C2   DG A  26      87.821  90.419 188.170  1.00  0.00     0.703 A 
ATOM    564  H1   DG A  26      89.323  91.761 187.823  1.00  0.00     0.187 HD
ATOM    565  N2   DG A  26      88.502  89.480 187.510  1.00  0.00    -0.233 N 
ATOM    566  N3   DG A  26      86.642  90.131 188.692  1.00  0.00    -0.044 NA
ATOM    567  H21  DG A  26      88.101  88.555 187.421  1.00  0.00     0.174 HD
ATOM    568  H22  DG A  26      89.407  89.681 187.109  1.00  0.00     0.174 HD
ATOM    569  O2'  DG A  26      83.216  88.402 191.596  1.00  0.00    -0.388 OA
ATOM    570 2'HO  DG A  26      82.448  88.332 192.166  1.00  0.00     0.210 HD
ATOM    571  O3'  DG A  26      81.429  90.145 192.704  1.00  0.00    -0.279 OA
ATOM    572  P    DC A  27      81.380  90.859 194.145  1.00  0.00     0.408 P 
ATOM    573  O5'  DC A  27      82.688  90.326 194.886  1.00  0.00    -0.287 OA
ATOM    574  OP1  DC A  27      80.189  90.335 194.860  1.00  0.00    -0.624 OA
ATOM    575  OP2  DC A  27      81.531  92.324 193.950  1.00  0.00    -0.624 OA
ATOM    576  C5'  DC A  27      82.656  89.140 195.682  1.00  0.00     0.216 C 
ATOM    577  C4'  DC A  27      83.905  88.320 195.449  1.00  0.00     0.180 C 
ATOM    578  O4'  DC A  27      84.533  88.735 194.205  1.00  0.00    -0.353 OA
ATOM    579  C3'  DC A  27      85.001  88.491 196.493  1.00  0.00     0.198 C 
ATOM    580  C1'  DC A  27      85.944  88.695 194.344  1.00  0.00     0.264 C 
ATOM    581  N1   DC A  27      86.473  90.058 194.167  1.00  0.00    -0.278 N 
ATOM    582  C2'  DC A  27      86.251  88.098 195.717  1.00  0.00     0.199 C 
ATOM    583  C2   DC A  27      87.857  90.238 194.073  1.00  0.00     0.352 A 
ATOM    584  C6   DC A  27      85.633  91.135 194.093  1.00  0.00     0.102 A 
ATOM    585  N3   DC A  27      88.352  91.484 193.906  1.00  0.00    -0.177 NA
ATOM    586  O2   DC A  27      88.600  89.248 194.147  1.00  0.00    -0.244 OA
ATOM    587  C4   DC A  27      87.523  92.526 193.832  1.00  0.00     0.128 A 
ATOM    588  N4   DC A  27      88.059  93.733 193.665  1.00  0.00    -0.384 N 
ATOM    589  C5   DC A  27      86.109  92.375 193.928  1.00  0.00     0.067 A 
ATOM    590  H42  DC A  27      89.063  93.828 193.597  1.00  0.00     0.157 HD
ATOM    591  H41  DC A  27      87.468  94.550 193.602  1.00  0.00     0.157 HD
ATOM    592  O2'  DC A  27      86.355  86.693 195.587  1.00  0.00    -0.388 OA
ATOM    593 2'HO  DC A  27      85.734  86.310 196.206  1.00  0.00     0.210 HD
ATOM    594  O3'  DC A  27      84.781  87.662 197.630  1.00  0.00    -0.279 OA
ATOM    595  P    DT A  28      85.427  88.065 199.047  1.00  0.00     0.408 P 
ATOM    596  OP1  DT A  28      84.892  87.123 200.064  1.00  0.00    -0.624 OA
ATOM    597  OP2  DT A  28      85.259  89.527 199.242  1.00  0.00    -0.624 OA
ATOM    598  O5'  DT A  28      86.981  87.764 198.862  1.00  0.00    -0.287 OA
ATOM    599  C5'  DT A  28      87.442  86.449 198.552  1.00  0.00     0.216 C 
ATOM    600  C4'  DT A  28      88.950  86.435 198.457  1.00  0.00     0.180 C 
ATOM    601  O4'  DT A  28      89.357  87.170 197.271  1.00  0.00    -0.353 OA
ATOM    602  C3'  DT A  28      89.689  87.124 199.596  1.00  0.00     0.198 C 
ATOM    603  C1'  DT A  28      90.548  87.890 197.541  1.00  0.00     0.264 C 
ATOM    604  C2'  DT A  28      91.014  87.493 198.941  1.00  0.00     0.199 C 
ATOM    605  N1   DT A  28      90.267  89.326 197.399  1.00  0.00    -0.280 N 
ATOM    606  O2'  DT A  28      91.863  86.366 198.833  1.00  0.00    -0.388 OA
ATOM    607 2'HO  DT A  28      91.453  85.659 199.333  1.00  0.00     0.210 HD
ATOM    608  C2   DT A  28      91.330  90.164 197.117  1.00  0.00     0.331 A 
ATOM    609  C6   DT A  28      88.991  89.823 197.541  1.00  0.00     0.104 A 
ATOM    610  N3   DT A  28      91.005  91.490 196.994  1.00  0.00    -0.275 N 
ATOM    611  O2   DT A  28      92.472  89.765 196.984  1.00  0.00    -0.246 OA
ATOM    612  C4   DT A  28      89.756  92.052 197.121  1.00  0.00     0.250 A 
ATOM    613  H3   DT A  28      91.770  92.116 196.790  1.00  0.00     0.173 HD
ATOM    614  O4   DT A  28      89.622  93.267 196.975  1.00  0.00    -0.268 OA
ATOM    615  C5   DT A  28      88.712  91.123 197.413  1.00  0.00     0.092 A 
ATOM    616  O3'  DT A  28      89.856  86.263 200.719  1.00  0.00    -0.279 OA
ATOM    617  P    DT A  29      90.155  86.892 202.169  1.00  0.00     0.408 P 
ATOM    618  OP1  DT A  29      90.156  85.775 203.147  1.00  0.00    -0.624 OA
ATOM    619  OP2  DT A  29      89.245  88.048 202.377  1.00  0.00    -0.624 OA
ATOM    620  O5'  DT A  29      91.643  87.451 202.050  1.00  0.00    -0.287 OA
ATOM    621  C5'  DT A  29      92.723  86.591 201.688  1.00  0.00     0.216 C 
ATOM    622  C4'  DT A  29      94.025  87.360 201.687  1.00  0.00     0.180 C 
ATOM    623  C3'  DT A  29      94.231  88.315 202.851  1.00  0.00     0.198 C 
ATOM    624  O4'  DT A  29      94.073  88.224 200.519  1.00  0.00    -0.353 OA
ATOM    625  O3'  DT A  29      94.698  87.641 204.016  1.00  0.00    -0.279 OA
ATOM    626  C2'  DT A  29      95.258  89.287 202.283  1.00  0.00     0.199 C 
ATOM    627  P    DC A  30      94.397  88.256 205.471  1.00  0.00     0.408 P 
ATOM    628  OP1  DC A  30      94.864  87.269 206.476  1.00  0.00    -0.624 OA
ATOM    629  O5'  DC A  30      95.346  89.534 205.551  1.00  0.00    -0.287 OA
ATOM    630  OP2  DC A  30      92.989  88.726 205.503  1.00  0.00    -0.624 OA
ATOM    631  C5'  DC A  30      96.750  89.422 205.328  1.00  0.00     0.216 C 
ATOM    632  C4'  DC A  30      97.366  90.794 205.187  1.00  0.00     0.180 C 
ATOM    633  O4'  DC A  30      96.886  91.410 203.962  1.00  0.00    -0.353 OA
ATOM    634  C3'  DC A  30      96.990  91.796 206.267  1.00  0.00     0.198 C 
ATOM    635  C1'  DC A  30      96.760  92.810 204.152  1.00  0.00     0.264 C 
ATOM    636  C2'  DC A  30      97.236  93.127 205.570  1.00  0.00     0.199 C 
ATOM    637  N1   DC A  30      95.358  93.192 203.907  1.00  0.00    -0.278 N 
ATOM    638  O2'  DC A  30      98.618  93.434 205.525  1.00  0.00    -0.388 OA
ATOM    639 2'HO  DC A  30      99.039  92.919 206.212  1.00  0.00     0.210 HD
ATOM    640  C2   DC A  30      95.077  94.508 203.532  1.00  0.00     0.352 A 
ATOM    641  C6   DC A  30      94.346  92.283 204.044  1.00  0.00     0.102 A 
ATOM    642  N3   DC A  30      93.795  94.872 203.307  1.00  0.00    -0.177 NA
ATOM    643  O2   DC A  30      96.011  95.312 203.415  1.00  0.00    -0.244 OA
ATOM    644  C4   DC A  30      92.815  93.978 203.438  1.00  0.00     0.128 A 
ATOM    645  N4   DC A  30      91.569  94.383 203.203  1.00  0.00    -0.384 N 
ATOM    646  C5   DC A  30      93.072  92.628 203.818  1.00  0.00     0.067 A 
ATOM    647  H42  DC A  30      91.398  95.342 202.933  1.00  0.00     0.157 HD
ATOM    648  H41  DC A  30      90.797  93.738 203.291  1.00  0.00     0.157 HD
ATOM    649  O3'  DC A  30      97.784  91.634 207.439  1.00  0.00    -0.279 OA
ATOM    650  P    DA A  31      97.200  92.090 208.868  1.00  0.00     0.408 P 
ATOM    651  OP1  DA A  31      98.126  91.575 209.908  1.00  0.00    -0.624 OA
ATOM    652  O5'  DA A  31      97.316  93.678 208.840  1.00  0.00    -0.287 OA
ATOM    653  OP2  DA A  31      95.760  91.729 208.925  1.00  0.00    -0.624 OA
ATOM    654  C5'  DA A  31      98.582  94.319 208.697  1.00  0.00     0.216 C 
ATOM    655  C4'  DA A  31      98.410  95.820 208.701  1.00  0.00     0.180 C 
ATOM    656  O4'  DA A  31      97.827  96.238 207.437  1.00  0.00    -0.353 OA
ATOM    657  C3'  DA A  31      97.454  96.373 209.748  1.00  0.00     0.198 C 
ATOM    658  C1'  DA A  31      96.940  97.322 207.656  1.00  0.00     0.262 C 
ATOM    659  N9   DA A  31      95.596  96.910 207.253  1.00  0.00    -0.294 N 
ATOM    660  C2'  DA A  31      97.041  97.704 209.134  1.00  0.00     0.199 C 
ATOM    661  C4   DA A  31      94.583  97.741 206.838  1.00  0.00     0.167 A 
ATOM    662  C8   DA A  31      95.080  95.640 207.210  1.00  0.00     0.214 A 
ATOM    663  C5   DA A  31      93.506  96.916 206.570  1.00  0.00     0.149 A 
ATOM    664  N3   DA A  31      94.623  99.079 206.719  1.00  0.00    -0.222 NA
ATOM    665  N7   DA A  31      93.834  95.588 206.807  1.00  0.00    -0.236 NA
ATOM    666  C6   DA A  31      92.325  97.535 206.125  1.00  0.00     0.155 A 
ATOM    667  N1   DA A  31      92.330  98.880 205.996  1.00  0.00    -0.222 NA
ATOM    668  C2   DA A  31      93.451  99.547 206.295  1.00  0.00     0.237 A 
ATOM    669  O2'  DT A  29      96.553  88.714 202.273  1.00  0.00    -0.388 OA
ATOM    670  C1'  DT A  29      94.769  89.417 200.840  1.00  0.00     0.264 C 
ATOM    671 2'HO  DT A  29      96.512  87.931 202.824  1.00  0.00     0.210 HD
ATOM    672  N1   DT A  29      93.866  90.557 200.627  1.00  0.00    -0.280 N 
ATOM    673  C2   DT A  29      94.433  91.783 200.324  1.00  0.00     0.331 A 
ATOM    674  C6   DT A  29      92.500  90.415 200.726  1.00  0.00     0.104 A 
ATOM    675  O2   DT A  29      95.635  91.951 200.226  1.00  0.00    -0.246 OA
ATOM    676  N3   DT A  29      93.539  92.806 200.139  1.00  0.00    -0.275 N 
ATOM    677  C4   DT A  29      92.168  92.733 200.221  1.00  0.00     0.250 A 
ATOM    678  H3   DT A  29      93.932  93.709 199.921  1.00  0.00     0.173 HD
ATOM    679  O4   DT A  29      91.497  93.746 200.030  1.00  0.00    -0.268 OA
ATOM    680  C5   DT A  29      91.659  91.435 200.536  1.00  0.00     0.092 A 
ATOM    681 2'HO  DC A  25      81.192  92.144 186.097  1.00  0.00     0.210 HD
BRANCH 540 682
ATOM    682  N1   DC A  25      85.346  92.558 184.804  1.00  0.00    -0.278 N 
ATOM    683  C2   DC A  25      85.776  91.291 184.397  1.00  0.00     0.352 A 
ATOM    684  N3   DC A  25      87.092  90.992 184.448  1.00  0.00    -0.177 NA
ATOM    685  O2   DC A  25      84.937  90.470 183.998  1.00  0.00    -0.244 OA
ATOM    686  C4   DC A  25      87.967  91.902 184.879  1.00  0.00     0.128 A 
ATOM    687  N4   DC A  25      89.255  91.561 184.907  1.00  0.00    -0.384 N 
ATOM    688  C5   DC A  25      87.558  93.201 185.300  1.00  0.00     0.067 A 
ATOM    689  H42  DC A  25      89.538  90.642 184.597  1.00  0.00     0.157 HD
ATOM    690  H41  DC A  25      89.950  92.220 185.226  1.00  0.00     0.157 HD
ATOM    691  C6   DC A  25      86.250  93.483 185.245  1.00  0.00     0.102 A 
ENDBRANCH 540 682
BRANCH 666 692
ATOM    692  N6   DA A  31      91.210  96.870 205.824  1.00  0.00    -0.382 N 
ATOM    693  H62  DA A  31      91.206  95.858 205.848  1.00  0.00     0.157 HD
ATOM    694  H61  DA A  31      90.373  97.375 205.574  1.00  0.00     0.157 HD
ENDBRANCH 666 692
BRANCH 660 695
ATOM    695  O2'  DA A  31      98.060  98.674 209.282  1.00  0.00    -0.388 OA
ATOM    696 2'HO  DA A  31      98.883  98.196 209.391  1.00  0.00     0.210 HD
ENDBRANCH 660 695
BRANCH 657 697
ATOM    697  O3'  DA A  31      98.084  96.530 211.017  1.00  0.00    -0.279 OA
BRANCH 697 698
ATOM    698  P    DA A  32      97.187  96.597 212.350  1.00  0.00     0.408 P 
ATOM    699  OP2  DA A  32      96.276  95.426 212.361  1.00  0.00    -0.624 OA
ATOM    700  OP1  DA A  32      98.112  96.818 213.491  1.00  0.00    -0.624 OA
BRANCH 698 701
ATOM    701  O5'  DA A  32      96.310  97.915 212.159  1.00  0.00    -0.287 OA
ATOM    702  C5'  DA A  32      96.925  99.200 212.100  1.00  0.00     0.216 C 
ATOM    703  C4'  DA A  32      95.920 100.245 211.666  1.00  0.00     0.180 C 
ATOM    704  C3'  DA A  32      94.765 100.494 212.621  1.00  0.00     0.198 C 
ATOM    705  O4'  DA A  32      95.249  99.815 210.459  1.00  0.00    -0.353 OA
ATOM    706  O3'  DA A  32      95.152 101.344 213.697  1.00  0.00    -0.279 OA
ATOM    707  C2'  DA A  32      93.715 101.141 211.718  1.00  0.00     0.199 C 
ATOM    708  P    DT A  33      94.450 101.184 215.136  1.00  0.00     0.408 P 
ATOM    709  OP1  DT A  33      94.751 102.412 215.914  1.00  0.00    -0.624 OA
ATOM    710  OP2  DT A  33      94.820  99.856 215.688  1.00  0.00    -0.624 OA
ATOM    711  O5'  DT A  33      92.892 101.170 214.805  1.00  0.00    -0.287 OA
ATOM    712  C5'  DT A  33      92.205 102.371 214.454  1.00  0.00     0.216 C 
ATOM    713  C4'  DT A  33      90.726 102.099 214.304  1.00  0.00     0.180 C 
ATOM    714  O4'  DT A  33      90.502 101.332 213.095  1.00  0.00    -0.353 OA
ATOM    715  C3'  DT A  33      90.105 101.249 215.401  1.00  0.00     0.198 C 
ATOM    716  C1'  DT A  33      89.396 100.467 213.280  1.00  0.00     0.264 C 
ATOM    717  N1   DT A  33      89.828  99.095 212.981  1.00  0.00    -0.280 N 
ATOM    718  C2'  DT A  33      88.882 100.656 214.710  1.00  0.00     0.199 C 
ATOM    719  C2   DT A  33      89.010  98.320 212.179  1.00  0.00     0.331 A 
ATOM    720  C6   DT A  33      91.008  98.593 213.481  1.00  0.00     0.104 A 
ATOM    721  N3   DT A  33      89.463  97.049 211.943  1.00  0.00    -0.275 N 
ATOM    722  O2   DT A  33      87.961  98.729 211.711  1.00  0.00    -0.246 OA
ATOM    723  H3   DT A  33      88.875  96.462 211.369  1.00  0.00     0.173 HD
ATOM    724  C4   DT A  33      90.627  96.485 212.410  1.00  0.00     0.250 A 
ATOM    725  C5   DT A  33      91.421  97.348 213.227  1.00  0.00     0.092 A 
ATOM    726  O4   DT A  33      90.899  95.324 212.106  1.00  0.00    -0.268 OA
ATOM    727  O2'  DT A  33      87.813 101.582 214.683  1.00  0.00    -0.388 OA
ATOM    728 2'HO  DT A  33      87.909 102.146 215.449  1.00  0.00     0.210 HD
ATOM    729  O3'  DT A  33      89.763 102.037 216.537  1.00  0.00    -0.279 OA
ATOM    730  P    DG A  34      89.962 101.436 218.015  1.00  0.00     0.408 P 
ATOM    731  OP2  DG A  34      91.369 100.976 218.147  1.00  0.00    -0.624 OA
ATOM    732  OP1  DG A  34      89.421 102.430 218.977  1.00  0.00    -0.624 OA
ATOM    733  O5'  DG A  34      89.013 100.157 218.032  1.00  0.00    -0.287 OA
ATOM    734  C5'  DG A  34      89.184  99.126 219.004  1.00  0.00     0.216 C 
ATOM    735  C4'  DG A  34      87.918  98.311 219.120  1.00  0.00     0.180 C 
ATOM    736  O4'  DG A  34      86.865  99.159 219.653  1.00  0.00    -0.353 OA
ATOM    737  C3'  DG A  34      87.362  97.777 217.805  1.00  0.00     0.198 C 
ATOM    738  C1'  DG A  34      85.641  98.868 219.005  1.00  0.00     0.262 C 
ATOM    739  N9   DG A  34      85.199 100.068 218.301  1.00  0.00    -0.293 N 
ATOM    740  C2'  DG A  34      85.869  97.664 218.092  1.00  0.00     0.199 C 
ATOM    741  C8   DG A  34      85.983 101.085 217.815  1.00  0.00     0.214 A 
ATOM    742  C4   DG A  34      83.901 100.403 217.999  1.00  0.00     0.187 A 
ATOM    743  N7   DG A  34      85.299 102.033 217.237  1.00  0.00    -0.234 NA
ATOM    744  C5   DG A  34      83.978 101.615 217.346  1.00  0.00     0.173 A 
ATOM    745  C6   DG A  34      82.777 102.229 216.905  1.00  0.00     0.292 A 
ATOM    746  N1   DG A  34      81.664 101.460 217.223  1.00  0.00    -0.153 N 
ATOM    747  O6   DG A  34      82.631 103.302 216.308  1.00  0.00    -0.265 OA
ATOM    748  H1   DG A  34      80.764 101.818 216.947  1.00  0.00     0.187 HD
ATOM    749  C2   DG A  34      81.698 100.257 217.878  1.00  0.00     0.703 A 
ATOM    750  N2   DG A  34      80.518  99.668 218.089  1.00  0.00    -0.233 N 
ATOM    751  N3   DG A  34      82.805  99.674 218.295  1.00  0.00    -0.044 NA
ATOM    752  H22  DG A  34      79.663 100.103 217.776  1.00  0.00     0.174 HD
ATOM    753  H21  DG A  34      80.492  98.780 218.568  1.00  0.00     0.174 HD
ATOM    754  O2'  DG A  34      85.578  96.484 218.819  1.00  0.00    -0.388 OA
ATOM    755 2'HO  DG A  34      86.314  95.888 218.677  1.00  0.00     0.210 HD
ATOM    756  O3'  DG A  34      87.946  96.519 217.471  1.00  0.00    -0.279 OA
ATOM    757  P    DG A  35      88.062  96.073 215.929  1.00  0.00     0.408 P 
ATOM    758  OP2  DG A  35      88.732  97.161 215.172  1.00  0.00    -0.624 OA
ATOM    759  O5'  DG A  35      86.549  95.973 215.436  1.00  0.00    -0.287 OA
ATOM    760  OP1  DG A  35      88.642  94.707 215.914  1.00  0.00    -0.624 OA
ATOM    761  C5'  DG A  35      85.654  95.009 215.991  1.00  0.00     0.216 C 
ATOM    762  C4'  DG A  35      84.309  95.090 215.307  1.00  0.00     0.180 C 
ATOM    763  C3'  DG A  35      84.358  95.187 213.786  1.00  0.00     0.198 C 
ATOM    764  O4'  DG A  35      83.640  96.302 215.755  1.00  0.00    -0.353 OA
ATOM    765  C2'  DG A  35      83.139  96.041 213.452  1.00  0.00     0.199 C 
ATOM    766  O3'  DG A  35      84.286  93.896 213.182  1.00  0.00    -0.279 OA
ATOM    767  C1'  DG A  35      83.105  96.995 214.645  1.00  0.00     0.262 C 
ATOM    768  O2'  DG A  35      81.956  95.265 213.454  1.00  0.00    -0.388 OA
ATOM    769  N9   DG A  35      83.881  98.216 214.450  1.00  0.00    -0.293 N 
ATOM    770  C8   DG A  35      85.249  98.334 214.418  1.00  0.00     0.214 A 
ATOM    771  C4   DG A  35      83.380  99.482 214.265  1.00  0.00     0.187 A 
ATOM    772  N7   DG A  35      85.657  99.558 214.229  1.00  0.00    -0.234 NA
ATOM    773  C5   DG A  35      84.484 100.297 214.131  1.00  0.00     0.173 A 
ATOM    774  C6   DG A  35      84.287 101.687 213.923  1.00  0.00     0.292 A 
ATOM    775  N1   DG A  35      82.937 102.010 213.887  1.00  0.00    -0.153 N 
ATOM    776  O6   DG A  35      85.134 102.576 213.782  1.00  0.00    -0.265 OA
ATOM    777  C2   DG A  35      81.908 101.116 214.032  1.00  0.00     0.703 A 
ATOM    778  H1   DG A  35      82.704 102.980 213.742  1.00  0.00     0.187 HD
ATOM    779  N2   DG A  35      80.674 101.623 213.966  1.00  0.00    -0.233 N 
ATOM    780  N3   DG A  35      82.074  99.822 214.228  1.00  0.00    -0.044 NA
ATOM    781  H22  DG A  35      80.536 102.610 213.809  1.00  0.00     0.174 HD
ATOM    782  H21  DG A  35      79.881 101.005 214.067  1.00  0.00     0.174 HD
ATOM    783 2'HO  DG A  35      82.215  94.365 213.653  1.00  0.00     0.210 HD
ATOM    784  P    DC A  36      84.879  93.668 211.703  1.00  0.00     0.408 P 
ATOM    785  O5'  DC A  36      83.585  93.571 210.777  1.00  0.00    -0.287 OA
ATOM    786  OP2  DC A  36      85.651  94.872 211.301  1.00  0.00    -0.624 OA
ATOM    787  OP1  DC A  36      85.542  92.339 211.700  1.00  0.00    -0.624 OA
ATOM    788  C5'  DC A  36      83.705  93.342 209.372  1.00  0.00     0.216 C 
ATOM    789  C4'  DC A  36      82.371  93.544 208.691  1.00  0.00     0.180 C 
ATOM    790  C3'  DC A  36      81.545  94.722 209.205  1.00  0.00     0.198 C 
ATOM    791  O4'  DC A  36      81.554  92.359 208.916  1.00  0.00    -0.353 OA
ATOM    792  O3'  DC A  36      80.845  95.365 208.142  1.00  0.00    -0.279 OA
ATOM    793  C2'  DC A  36      80.593  94.074 210.204  1.00  0.00     0.199 C 
ATOM    794  P    DA A  37      81.433  96.719 207.501  1.00  0.00     0.408 P 
ATOM    795  OP2  DA A  37      82.888  96.543 207.267  1.00  0.00    -0.624 OA
ATOM    796  OP1  DA A  37      80.546  97.079 206.366  1.00  0.00    -0.624 OA
ATOM    797  O5'  DA A  37      81.238  97.807 208.648  1.00  0.00    -0.287 OA
ATOM    798  C5'  DA A  37      79.977  97.979 209.295  1.00  0.00     0.216 C 
ATOM    799  C4'  DA A  37      79.726  99.443 209.572  1.00  0.00     0.180 C 
ATOM    800  C3'  DA A  37      80.314 100.409 208.549  1.00  0.00     0.198 C 
ATOM    801  O4'  DA A  37      80.362  99.790 210.833  1.00  0.00    -0.353 OA
ATOM    802  O3'  DA A  37      79.395 100.677 207.493  1.00  0.00    -0.279 OA
ATOM    803  C2'  DA A  37      80.608 101.648 209.384  1.00  0.00     0.199 C 
ATOM    804  P    DT A  38      79.947 101.033 206.025  1.00  0.00     0.408 P 
ATOM    805  O5'  DT A  38      81.190 101.991 206.301  1.00  0.00    -0.287 OA
ATOM    806  OP1  DT A  38      78.895 101.819 205.331  1.00  0.00    -0.624 OA
ATOM    807  OP2  DT A  38      80.460  99.787 205.403  1.00  0.00    -0.624 OA
ATOM    808  C5'  DT A  38      81.005 103.379 206.576  1.00  0.00     0.216 C 
ATOM    809  C4'  DT A  38      82.344 104.066 206.701  1.00  0.00     0.180 C 
ATOM    810  C3'  DT A  38      83.267 103.913 205.501  1.00  0.00     0.198 C 
ATOM    811  O4'  DT A  38      83.081 103.472 207.802  1.00  0.00    -0.353 OA
ATOM    812  C2'  DT A  38      84.650 104.087 206.116  1.00  0.00     0.199 C 
ATOM    813  O3'  DT A  38      82.981 104.890 204.504  1.00  0.00    -0.279 OA
ATOM    814  O2'  DT A  38      84.957 105.455 206.309  1.00  0.00    -0.388 OA
ATOM    815  C1'  DT A  38      84.463 103.434 207.487  1.00  0.00     0.264 C 
ATOM    816 2'HO  DT A  38      85.347 105.770 205.491  1.00  0.00     0.210 HD
ATOM    817  N1   DT A  38      84.911 102.034 207.544  1.00  0.00    -0.280 N 
ATOM    818  C6   DT A  38      84.044 100.994 207.289  1.00  0.00     0.104 A 
ATOM    819  C2   DT A  38      86.234 101.794 207.866  1.00  0.00     0.331 A 
ATOM    820  C5   DT A  38      84.427  99.715 207.341  1.00  0.00     0.092 A 
ATOM    821  C4   DT A  38      85.778  99.386 207.672  1.00  0.00     0.250 A 
ATOM    822  N3   DT A  38      86.588 100.470 207.914  1.00  0.00    -0.275 N 
ATOM    823  O4   DT A  38      86.250  98.252 207.750  1.00  0.00    -0.268 OA
ATOM    824  H3   DT A  38      87.546 100.269 208.160  1.00  0.00     0.173 HD
ATOM    825  O2   DT A  38      87.034 102.684 208.092  1.00  0.00    -0.246 OA
ATOM    826  P    DT A  39      83.586 104.722 203.024  1.00  0.00     0.408 P 
ATOM    827  OP1  DT A  39      82.911 105.723 202.157  1.00  0.00    -0.624 OA
ATOM    828  OP2  DT A  39      83.539 103.284 202.654  1.00  0.00    -0.624 OA
ATOM    829  O5'  DT A  39      85.112 105.156 203.180  1.00  0.00    -0.287 OA
ATOM    830  C5'  DT A  39      86.169 104.302 202.748  1.00  0.00     0.216 C 
ATOM    831  C4'  DT A  39      87.481 104.761 203.338  1.00  0.00     0.180 C 
ATOM    832  C3'  DT A  39      88.725 104.305 202.589  1.00  0.00     0.198 C 
ATOM    833  O4'  DT A  39      87.623 104.192 204.669  1.00  0.00    -0.353 OA
ATOM    834  O3'  DT A  39      89.052 105.198 201.528  1.00  0.00    -0.279 OA
ATOM    835  C2'  DT A  39      89.778 104.289 203.689  1.00  0.00     0.199 C 
ATOM    836  P    DG A  40      89.716 104.627 200.178  1.00  0.00     0.408 P 
ATOM    837  OP1  DG A  40      89.746 105.740 199.196  1.00  0.00    -0.624 OA
ATOM    838  O5'  DG A  40      91.217 104.298 200.596  1.00  0.00    -0.287 OA
ATOM    839  OP2  DG A  40      89.041 103.352 199.821  1.00  0.00    -0.624 OA
ATOM    840  C5'  DG A  40      92.068 105.309 201.133  1.00  0.00     0.216 C 
ATOM    841  C4'  DG A  40      93.446 104.747 201.385  1.00  0.00     0.180 C 
ATOM    842  O4'  DG A  40      93.398 103.892 202.559  1.00  0.00    -0.353 OA
ATOM    843  C3'  DG A  40      93.996 103.855 200.281  1.00  0.00     0.198 C 
ATOM    844  C1'  DG A  40      94.215 102.753 202.355  1.00  0.00     0.262 C 
ATOM    845  C2'  DG A  40      94.964 102.953 201.038  1.00  0.00     0.199 C 
ATOM    846  N9   DG A  40      93.366 101.567 202.371  1.00  0.00    -0.293 N 
ATOM    847  O2'  DG A  40      96.182 103.623 201.305  1.00  0.00    -0.388 OA
ATOM    848 2'HO  DG A  40      96.221 104.369 200.706  1.00  0.00     0.210 HD
ATOM    849  C8   DG A  40      92.004 101.515 202.191  1.00  0.00     0.214 A 
ATOM    850  C4   DG A  40      93.778 100.272 202.573  1.00  0.00     0.187 A 
ATOM    851  N7   DG A  40      91.520 100.305 202.264  1.00  0.00    -0.234 NA
ATOM    852  C5   DG A  40      92.632  99.507 202.504  1.00  0.00     0.173 A 
ATOM    853  C6   DG A  40      92.738  98.102 202.677  1.00  0.00     0.292 A 
ATOM    854  N1   DG A  40      94.054  97.713 202.900  1.00  0.00    -0.153 N 
ATOM    855  O6   DG A  40      91.842  97.251 202.652  1.00  0.00    -0.265 OA
ATOM    856  C2   DG A  40      95.129  98.563 202.949  1.00  0.00     0.703 A 
ATOM    857  H1   DG A  40      94.228  96.729 203.035  1.00  0.00     0.187 HD
ATOM    858  N3   DG A  40      95.047  99.870 202.789  1.00  0.00    -0.044 NA
ATOM    859  N2   DG A  40      96.319  97.999 203.173  1.00  0.00    -0.233 N 
ATOM    860  H21  DG A  40      97.141  98.582 203.216  1.00  0.00     0.174 HD
ATOM    861  H22  DG A  40      96.395  96.998 203.298  1.00  0.00     0.174 HD
ATOM    862  O3'  DG A  40      94.641 104.616 199.265  1.00  0.00    -0.279 OA
ATOM    863  P    DA A  41      94.832 103.987 197.797  1.00  0.00     0.408 P 
ATOM    864  OP2  DA A  41      93.538 103.407 197.359  1.00  0.00    -0.624 OA
ATOM    865  OP1  DA A  41      95.493 105.020 196.958  1.00  0.00    -0.624 OA
ATOM    866  O5'  DA A  41      95.863 102.793 198.020  1.00  0.00    -0.287 OA
ATOM    867  C5'  DA A  41      97.194 103.044 198.470  1.00  0.00     0.216 C 
ATOM    868  C4'  DA A  41      98.027 101.790 198.355  1.00  0.00     0.180 C 
ATOM    869  C3'  DA A  41      97.832 101.001 197.068  1.00  0.00     0.198 C 
ATOM    870  O4'  DA A  41      97.645 100.873 199.415  1.00  0.00    -0.353 OA
ATOM    871  O3'  DA A  41      98.687 101.485 196.036  1.00  0.00    -0.279 OA
ATOM    872  C2'  DA A  41      98.168  99.575 197.490  1.00  0.00     0.199 C 
ATOM    873  P    DA A  42      98.466 101.001 194.520  1.00  0.00     0.408 P 
ATOM    874  O5'  DA A  42      99.049  99.518 194.502  1.00  0.00    -0.287 OA
ATOM    875  OP1  DA A  42      99.332 101.843 193.656  1.00  0.00    -0.624 OA
ATOM    876  OP2  DA A  42      97.005 100.938 194.253  1.00  0.00    -0.624 OA
ATOM    877  C5'  DA A  42      98.323  98.447 193.901  1.00  0.00     0.216 C 
ATOM    878  C4'  DA A  42      98.853  97.120 194.390  1.00  0.00     0.180 C 
ATOM    879  C3'  DA A  42      98.319  95.900 193.649  1.00  0.00     0.198 C 
ATOM    880  O4'  DA A  42      98.440  96.937 195.774  1.00  0.00    -0.353 OA
ATOM    881  O3'  DA A  42      99.134  95.572 192.526  1.00  0.00    -0.279 OA
ATOM    882  C2'  DA A  42      98.342  94.823 194.726  1.00  0.00     0.199 C 
ATOM    883  P    DG A  43      98.448  95.089 191.153  1.00  0.00     0.408 P 
ATOM    884  O5'  DG A  43      98.136  93.546 191.404  1.00  0.00    -0.287 OA
ATOM    885  OP1  DG A  43      99.481  95.182 190.090  1.00  0.00    -0.624 OA
ATOM    886  OP2  DG A  43      97.161  95.812 190.992  1.00  0.00    -0.624 OA
ATOM    887  C5'  DG A  43      99.165  92.650 191.821  1.00  0.00     0.216 C 
ATOM    888  C4'  DG A  43      98.567  91.334 192.262  1.00  0.00     0.180 C 
ATOM    889  C3'  DG A  43      97.614  90.677 191.272  1.00  0.00     0.198 C 
ATOM    890  O4'  DG A  43      97.755  91.556 193.446  1.00  0.00    -0.353 OA
ATOM    891  O3'  DG A  43      98.317  89.912 190.297  1.00  0.00    -0.279 OA
ATOM    892  C2'  DG A  43      96.749  89.813 192.179  1.00  0.00     0.199 C 
ATOM    893  P    DA A  44      97.705  89.743 188.818  1.00  0.00     0.408 P 
ATOM    894  OP1  DA A  44      98.740  89.071 187.991  1.00  0.00    -0.624 OA
ATOM    895  OP2  DA A  44      97.151  91.049 188.380  1.00  0.00    -0.624 OA
ATOM    896  O5'  DA A  44      96.492  88.727 189.015  1.00  0.00    -0.287 OA
ATOM    897  C5'  DA A  44      96.723  87.364 189.367  1.00  0.00     0.216 C 
ATOM    898  C4'  DA A  44      95.412  86.670 189.659  1.00  0.00     0.180 C 
ATOM    899  C3'  DA A  44      94.386  86.712 188.535  1.00  0.00     0.198 C 
ATOM    900  O4'  DA A  44      94.768  87.341 190.777  1.00  0.00    -0.353 OA
ATOM    901  O3'  DA A  44      94.566  85.629 187.625  1.00  0.00    -0.279 OA
ATOM    902  C2'  DA A  44      93.062  86.624 189.285  1.00  0.00     0.199 C 
ATOM    903  P    DG A  45      94.083  85.780 186.097  1.00  0.00     0.408 P 
ATOM    904  OP1  DG A  45      94.029  84.413 185.520  1.00  0.00    -0.624 OA
ATOM    905  OP2  DG A  45      94.918  86.820 185.446  1.00  0.00    -0.624 OA
ATOM    906  O5'  DG A  45      92.593  86.334 186.216  1.00  0.00    -0.287 OA
ATOM    907  C5'  DG A  45      91.480  85.442 186.267  1.00  0.00     0.216 C 
ATOM    908  C4'  DG A  45      90.234  86.190 186.676  1.00  0.00     0.180 C 
ATOM    909  O4'  DG A  45      89.459  86.497 185.485  1.00  0.00    -0.353 OA
ATOM    910  C3'  DG A  45      89.278  85.410 187.568  1.00  0.00     0.198 C 
ATOM    911  C1'  DG A  45      88.079  86.324 185.752  1.00  0.00     0.262 C 
ATOM    912  N9   DG A  45      87.576  85.254 184.895  1.00  0.00    -0.293 N 
ATOM    913  C2'  DG A  45      87.928  86.041 187.248  1.00  0.00     0.199 C 
ATOM    914  C8   DG A  45      86.787  85.390 183.780  1.00  0.00     0.214 A 
ATOM    915  C4   DG A  45      87.799  83.906 185.048  1.00  0.00     0.187 A 
ATOM    916  N7   DG A  45      86.491  84.253 183.215  1.00  0.00    -0.234 NA
ATOM    917  C5   DG A  45      87.124  83.303 184.007  1.00  0.00     0.173 A 
ATOM    918  C6   DG A  45      87.163  81.888 183.895  1.00  0.00     0.292 A 
ATOM    919  O6   DG A  45      86.626  81.164 183.050  1.00  0.00    -0.265 OA
ATOM    920  N1   DG A  45      87.921  81.316 184.909  1.00  0.00    -0.153 N 
ATOM    921  H1   DG A  45      88.007  80.311 184.910  1.00  0.00     0.187 HD
ATOM    922  C2   DG A  45      88.557  82.013 185.904  1.00  0.00     0.703 A 
ATOM    923  N2   DG A  45      89.238  81.284 186.793  1.00  0.00    -0.233 N 
ATOM    924  N3   DG A  45      88.529  83.326 186.023  1.00  0.00    -0.044 NA
ATOM    925  H22  DG A  45      89.268  80.279 186.719  1.00  0.00     0.174 HD
ATOM    926  H21  DG A  45      89.720  81.759 187.543  1.00  0.00     0.174 HD
ATOM    927  O2'  DG A  45      87.761  87.269 187.929  1.00  0.00    -0.388 OA
ATOM    928 2'HO  DG A  45      87.418  87.059 188.799  1.00  0.00     0.210 HD
ATOM    929  O3'  DG A  45      89.620  85.529 188.946  1.00  0.00    -0.279 OA
ATOM    930  P    DG A  46      89.199  84.365 189.972  1.00  0.00     0.408 P 
ATOM    931  OP2  DG A  46      90.042  83.172 189.698  1.00  0.00    -0.624 OA
ATOM    932  O5'  DG A  46      87.700  84.013 189.559  1.00  0.00    -0.287 OA
ATOM    933  OP1  DG A  46      89.184  84.955 191.336  1.00  0.00    -0.624 OA
ATOM    934  C5'  DG A  46      86.762  83.527 190.520  1.00  0.00     0.216 C 
ATOM    935  C4'  DG A  46      85.586  84.472 190.626  1.00  0.00     0.180 C 
ATOM    936  O4'  DG A  46      85.432  85.185 189.378  1.00  0.00    -0.353 OA
ATOM    937  C3'  DG A  46      84.234  83.806 190.835  1.00  0.00     0.198 C 
ATOM    938  C1'  DG A  46      84.080  85.559 189.216  1.00  0.00     0.262 C 
ATOM    939  N9   DG A  46      83.686  85.267 187.841  1.00  0.00    -0.293 N 
ATOM    940  C2'  DG A  46      83.240  84.821 190.265  1.00  0.00     0.199 C 
ATOM    941  C4   DG A  46      84.035  84.162 187.101  1.00  0.00     0.187 A 
ATOM    942  C8   DG A  46      82.892  86.039 187.030  1.00  0.00     0.214 A 
ATOM    943  C5   DG A  46      83.424  84.333 185.877  1.00  0.00     0.173 A 
ATOM    944  N3   DG A  46      84.813  83.142 187.517  1.00  0.00    -0.044 NA
ATOM    945  N7   DG A  46      82.706  85.522 185.846  1.00  0.00    -0.234 NA
ATOM    946  C6   DG A  46      83.599  83.338 184.880  1.00  0.00     0.292 A 
ATOM    947  N1   DG A  46      84.402  82.299 185.333  1.00  0.00    -0.153 N 
ATOM    948  O6   DG A  46      83.142  83.304 183.732  1.00  0.00    -0.265 OA
ATOM    949  H1   DG A  46      84.578  81.544 184.689  1.00  0.00     0.187 HD
ATOM    950  C2   DG A  46      84.966  82.225 186.581  1.00  0.00     0.703 A 
ATOM    951  N2   DG A  46      85.711  81.147 186.828  1.00  0.00    -0.233 N 
ATOM    952  H22  DG A  46      85.825  80.431 186.128  1.00  0.00     0.174 HD
ATOM    953  H21  DG A  46      86.145  81.056 187.737  1.00  0.00     0.174 HD
ATOM    954  O2'  DG A  46      82.843  85.754 191.253  1.00  0.00    -0.388 OA
ATOM    955 2'HO  DG A  46      83.619  86.262 191.498  1.00  0.00     0.210 HD
ATOM    956  O3'  DG A  46      83.987  83.548 192.215  1.00  0.00    -0.279 OA
ATOM    957  P    DT A  47      84.524  82.190 192.890  1.00  0.00     0.408 P 
ATOM    958  OP2  DT A  47      85.930  82.401 193.319  1.00  0.00    -0.624 OA
ATOM    959  O5'  DT A  47      84.527  81.133 191.696  1.00  0.00    -0.287 OA
ATOM    960  OP1  DT A  47      83.511  81.757 193.886  1.00  0.00    -0.624 OA
ATOM    961  C5'  DT A  47      83.317  80.526 191.244  1.00  0.00     0.216 C 
ATOM    962  C4'  DT A  47      83.615  79.512 190.165  1.00  0.00     0.180 C 
ATOM    963  O4'  DT A  47      84.621  80.058 189.267  1.00  0.00    -0.353 OA
ATOM    964  C3'  DT A  47      84.201  78.195 190.659  1.00  0.00     0.198 C 
ATOM    965  C1'  DT A  47      85.581  79.064 188.958  1.00  0.00     0.264 C 
ATOM    966  N1   DT A  47      86.863  79.453 189.564  1.00  0.00    -0.280 N 
ATOM    967  C2'  DT A  47      85.032  77.733 189.469  1.00  0.00     0.199 C 
ATOM    968  C2   DT A  47      88.009  79.310 188.803  1.00  0.00     0.331 A 
ATOM    969  C6   DT A  47      86.923  79.942 190.850  1.00  0.00     0.104 A 
ATOM    970  O2   DT A  47      87.999  78.891 187.658  1.00  0.00    -0.246 OA
ATOM    971  N3   DT A  47      89.171  79.679 189.431  1.00  0.00    -0.275 N 
ATOM    972  H3   DT A  47      90.026  79.587 188.904  1.00  0.00     0.173 HD
ATOM    973  C4   DT A  47      89.303  80.167 190.710  1.00  0.00     0.250 A 
ATOM    974  O4   DT A  47      90.424  80.426 191.145  1.00  0.00    -0.268 OA
ATOM    975  C5   DT A  47      88.075  80.293 191.429  1.00  0.00     0.092 A 
ATOM    976  O2'  DT A  47      84.217  77.166 188.461  1.00  0.00    -0.388 OA
ATOM    977 2'HO  DT A  47      83.392  76.916 188.877  1.00  0.00     0.210 HD
ATOM    978  O3'  DT A  47      83.175  77.267 191.005  1.00  0.00    -0.279 OA
ATOM    979  P    DC A  48      83.515  76.016 191.958  1.00  0.00     0.408 P 
ATOM    980  O5'  DC A  48      84.106  74.924 190.960  1.00  0.00    -0.287 OA
ATOM    981  OP1  DC A  48      82.227  75.503 192.491  1.00  0.00    -0.624 OA
ATOM    982  OP2  DC A  48      84.592  76.412 192.899  1.00  0.00    -0.624 OA
ATOM    983  C5'  DC A  48      83.325  74.418 189.878  1.00  0.00     0.216 C 
ATOM    984  C4'  DC A  48      84.175  73.552 188.980  1.00  0.00     0.180 C 
ATOM    985  O4'  DC A  48      85.221  74.367 188.385  1.00  0.00    -0.353 OA
ATOM    986  C3'  DC A  48      84.926  72.426 189.676  1.00  0.00     0.198 C 
ATOM    987  C1'  DC A  48      86.421  73.615 188.295  1.00  0.00     0.264 C 
ATOM    988  C2'  DC A  48      86.095  72.186 188.729  1.00  0.00     0.199 C 
ATOM    989  N1   DC A  48      87.443  74.269 189.128  1.00  0.00    -0.278 N 
ATOM    990  O2'  DC A  48      85.687  71.450 187.592  1.00  0.00    -0.388 OA
ATOM    991 2'HO  DC A  48      84.824  71.087 187.796  1.00  0.00     0.210 HD
ATOM    992  C2   DC A  48      88.790  74.130 188.781  1.00  0.00     0.352 A 
ATOM    993  C6   DC A  48      87.087  75.007 190.224  1.00  0.00     0.102 A 
ATOM    994  O2   DC A  48      89.087  73.451 187.789  1.00  0.00    -0.244 OA
ATOM    995  N3   DC A  48      89.734  74.736 189.535  1.00  0.00    -0.177 NA
ATOM    996  C4   DC A  48      89.375  75.456 190.599  1.00  0.00     0.128 A 
ATOM    997  C5   DC A  48      88.011  75.614 190.979  1.00  0.00     0.067 A 
ATOM    998  N4   DC A  48      90.341  76.038 191.311  1.00  0.00    -0.384 N 
ATOM    999  H41  DC A  48      90.111  76.592 192.123  1.00  0.00     0.157 HD
ATOM   1000  H42  DC A  48      91.306  75.922 191.035  1.00  0.00     0.157 HD
ATOM   1001  O3'  DC A  48      84.109  71.272 189.840  1.00  0.00    -0.279 OA
ATOM   1002  P    DA A  49      84.467  70.197 190.981  1.00  0.00     0.408 P 
ATOM   1003  O5'  DA A  49      85.890  69.630 190.544  1.00  0.00    -0.287 OA
ATOM   1004  OP1  DA A  49      83.476  69.095 190.876  1.00  0.00    -0.624 OA
ATOM   1005  OP2  DA A  49      84.627  70.918 192.270  1.00  0.00    -0.624 OA
ATOM   1006  C5'  DA A  49      86.068  68.989 189.282  1.00  0.00     0.216 C 
ATOM   1007  C4'  DA A  49      87.500  68.531 189.127  1.00  0.00     0.180 C 
ATOM   1008  O4'  DA A  49      88.336  69.666 188.787  1.00  0.00    -0.353 OA
ATOM   1009  C3'  DA A  49      88.153  67.973 190.381  1.00  0.00     0.198 C 
ATOM   1010  C1'  DA A  49      89.641  69.460 189.301  1.00  0.00     0.262 C 
ATOM   1011  C2'  DA A  49      89.638  68.140 190.075  1.00  0.00     0.199 C 
ATOM   1012  N9   DA A  49      90.002  70.617 190.122  1.00  0.00    -0.294 N 
ATOM   1013  O2'  DA A  49      90.106  67.115 189.217  1.00  0.00    -0.388 OA
ATOM   1014 2'HO  DA A  49      90.330  66.367 189.773  1.00  0.00     0.210 HD
ATOM   1015  C4   DA A  49      91.272  71.094 190.333  1.00  0.00     0.167 A 
ATOM   1016  C8   DA A  49      89.167  71.442 190.835  1.00  0.00     0.214 A 
ATOM   1017  N3   DA A  49      92.420  70.605 189.836  1.00  0.00    -0.222 NA
ATOM   1018  C5   DA A  49      91.130  72.190 191.166  1.00  0.00     0.149 A 
ATOM   1019  C2   DA A  49      93.459  71.324 190.256  1.00  0.00     0.237 A 
ATOM   1020  N1   DA A  49      93.478  72.398 191.057  1.00  0.00    -0.222 NA
ATOM   1021  C6   DA A  49      92.306  72.865 191.538  1.00  0.00     0.155 A 
ATOM   1022  N6   DA A  49      92.326  73.934 192.335  1.00  0.00    -0.382 N 
ATOM   1023  H62  DA A  49      93.203  74.380 192.566  1.00  0.00     0.157 HD
ATOM   1024  H61  DA A  49      91.461  74.299 192.706  1.00  0.00     0.157 HD
ATOM   1025  N7   DA A  49      89.794  72.399 191.477  1.00  0.00    -0.236 NA
ATOM   1026  O3'  DA A  49      87.785  66.613 190.603  1.00  0.00    -0.279 OA
ATOM   1027  P    DG A  50      87.589  66.071 192.106  1.00  0.00     0.408 P 
ATOM   1028  O5'  DG A  50      89.007  65.450 192.479  1.00  0.00    -0.287 OA
ATOM   1029  OP1  DG A  50      86.605  64.961 192.046  1.00  0.00    -0.624 OA
ATOM   1030  OP2  DG A  50      87.338  67.223 193.009  1.00  0.00    -0.624 OA
ATOM   1031  C5'  DG A  50      89.478  64.259 191.851  1.00  0.00     0.216 C 
ATOM   1032  C4'  DG A  50      90.989  64.238 191.838  1.00  0.00     0.180 C 
ATOM   1033  O4'  DG A  50      91.477  65.460 191.214  1.00  0.00    -0.353 OA
ATOM   1034  C3'  DG A  50      91.659  64.221 193.204  1.00  0.00     0.198 C 
ATOM   1035  C1'  DG A  50      92.621  65.926 191.911  1.00  0.00     0.262 C 
ATOM   1036  N9   DG A  50      92.287  67.194 192.551  1.00  0.00    -0.293 N 
ATOM   1037  C2'  DG A  50      93.019  64.833 192.899  1.00  0.00     0.199 C 
ATOM   1038  C4   DG A  50      93.120  68.273 192.721  1.00  0.00     0.187 A 
ATOM   1039  C8   DG A  50      91.081  67.546 193.106  1.00  0.00     0.214 A 
ATOM   1040  N3   DG A  50      94.407  68.353 192.322  1.00  0.00    -0.044 NA
ATOM   1041  C5   DG A  50      92.363  69.221 193.376  1.00  0.00     0.173 A 
ATOM   1042  C2   DG A  50      94.947  69.518 192.630  1.00  0.00     0.703 A 
ATOM   1043  N2   DG A  50      96.220  69.764 192.307  1.00  0.00    -0.233 N 
ATOM   1044  N1   DG A  50      94.281  70.527 193.277  1.00  0.00    -0.153 N 
ATOM   1045  H22  DG A  50      96.643  70.654 192.525  1.00  0.00     0.174 HD
ATOM   1046  H21  DG A  50      96.753  69.050 191.829  1.00  0.00     0.174 HD
ATOM   1047  H1   DG A  50      94.779  71.383 193.465  1.00  0.00     0.187 HD
ATOM   1048  C6   DG A  50      92.958  70.467 193.700  1.00  0.00     0.292 A 
ATOM   1049  O6   DG A  50      92.455  71.435 194.279  1.00  0.00    -0.265 OA
ATOM   1050  N7   DG A  50      91.079  68.749 193.612  1.00  0.00    -0.234 NA
ATOM   1051  O2'  DG A  50      93.864  63.907 192.241  1.00  0.00    -0.388 OA
ATOM   1052 2'HO  DG A  50      93.548  63.033 192.471  1.00  0.00     0.210 HD
ATOM   1053  O3'  DG A  50      91.757  62.901 193.734  1.00  0.00    -0.279 OA
ATOM   1054  P    DC A  51      91.785  62.681 195.328  1.00  0.00     0.408 P 
ATOM   1055  OP1  DC A  51      91.979  61.230 195.572  1.00  0.00    -0.624 OA
ATOM   1056  OP2  DC A  51      90.611  63.374 195.917  1.00  0.00    -0.624 OA
ATOM   1057  O5'  DC A  51      93.101  63.447 195.798  1.00  0.00    -0.287 OA
ATOM   1058  C5'  DC A  51      94.391  63.011 195.374  1.00  0.00     0.216 C 
ATOM   1059  C4'  DC A  51      95.422  64.086 195.635  1.00  0.00     0.180 C 
ATOM   1060  C3'  DC A  51      95.643  64.456 197.091  1.00  0.00     0.198 C 
ATOM   1061  O4'  DC A  51      94.988  65.338 195.047  1.00  0.00    -0.353 OA
ATOM   1062  C2'  DC A  51      96.297  65.830 196.977  1.00  0.00     0.199 C 
ATOM   1063  O3'  DC A  51      96.472  63.510 197.761  1.00  0.00    -0.279 OA
ATOM   1064  O2'  DC A  51      97.673  65.716 196.669  1.00  0.00    -0.388 OA
ATOM   1065  C1'  DC A  51      95.572  66.414 195.761  1.00  0.00     0.264 C 
ATOM   1066 2'HO  DC A  51      97.932  64.820 196.888  1.00  0.00     0.210 HD
ATOM   1067  N1   DC A  51      94.515  67.373 196.121  1.00  0.00    -0.278 N 
ATOM   1068  C6   DC A  51      93.193  67.063 195.955  1.00  0.00     0.102 A 
ATOM   1069  C2   DC A  51      94.886  68.614 196.643  1.00  0.00     0.352 A 
ATOM   1070  C5   DC A  51      92.232  67.936 196.286  1.00  0.00     0.067 A 
ATOM   1071  C4   DC A  51      92.642  69.192 196.820  1.00  0.00     0.128 A 
ATOM   1072  N4   DC A  51      91.736  70.102 197.170  1.00  0.00    -0.384 N 
ATOM   1073  N3   DC A  51      93.929  69.501 196.988  1.00  0.00    -0.177 NA
ATOM   1074  H42  DC A  51      92.036  70.994 197.538  1.00  0.00     0.157 HD
ATOM   1075  H41  DC A  51      90.752  69.905 197.057  1.00  0.00     0.157 HD
ATOM   1076  O2   DC A  51      96.091  68.873 196.776  1.00  0.00    -0.244 OA
ATOM   1077  P    DC A  52      96.404  63.382 199.364  1.00  0.00     0.408 P 
ATOM   1078  OP1  DC A  52      97.215  62.198 199.748  1.00  0.00    -0.624 OA
ATOM   1079  O5'  DC A  52      97.150  64.689 199.886  1.00  0.00    -0.287 OA
ATOM   1080  OP2  DC A  52      94.982  63.464 199.785  1.00  0.00    -0.624 OA
ATOM   1081  C5'  DC A  52      98.551  64.864 199.688  1.00  0.00     0.216 C 
ATOM   1082  C4'  DC A  52      99.076  65.953 200.594  1.00  0.00     0.180 C 
ATOM   1083  O4'  DC A  52      98.784  67.249 199.997  1.00  0.00    -0.353 OA
ATOM   1084  C3'  DC A  52      98.441  66.023 201.977  1.00  0.00     0.198 C 
ATOM   1085  C1'  DC A  52      98.362  68.155 201.004  1.00  0.00     0.264 C 
ATOM   1086  N1   DC A  52      96.937  68.461 200.786  1.00  0.00    -0.278 N 
ATOM   1087  C2'  DC A  52      98.646  67.485 202.346  1.00  0.00     0.199 C 
ATOM   1088  C2   DC A  52      96.424  69.670 201.264  1.00  0.00     0.352 A 
ATOM   1089  C6   DC A  52      96.126  67.579 200.128  1.00  0.00     0.102 A 
ATOM   1090  N3   DC A  52      95.119  69.960 201.061  1.00  0.00    -0.177 NA
ATOM   1091  O2   DC A  52      97.178  70.450 201.863  1.00  0.00    -0.244 OA
ATOM   1092  C4   DC A  52      94.338  69.096 200.410  1.00  0.00     0.128 A 
ATOM   1093  N4   DC A  52      93.062  69.430 200.225  1.00  0.00    -0.384 N 
ATOM   1094  C5   DC A  52      94.833  67.854 199.918  1.00  0.00     0.067 A 
ATOM   1095  H42  DC A  52      92.722  70.317 200.570  1.00  0.00     0.157 HD
ATOM   1096  H41  DC A  52      92.436  68.807 199.736  1.00  0.00     0.157 HD
ATOM   1097  O2'  DC A  52      99.991  67.740 202.706  1.00  0.00    -0.388 OA
ATOM   1098 2'HO  DC A  52     100.372  66.898 202.961  1.00  0.00     0.210 HD
ATOM   1099  O3'  DC A  52      99.065  65.134 202.898  1.00  0.00    -0.279 OA
ATOM   1100  P    DC A  53      98.254  64.629 204.192  1.00  0.00     0.408 P 
ATOM   1101  OP2  DC A  53      96.903  64.189 203.758  1.00  0.00    -0.624 OA
ATOM   1102  OP1  DC A  53      99.133  63.684 204.926  1.00  0.00    -0.624 OA
ATOM   1103  O5'  DC A  53      98.085  65.943 205.078  1.00  0.00    -0.287 OA
ATOM   1104  C5'  DC A  53      99.223  66.605 205.629  1.00  0.00     0.216 C 
ATOM   1105  C4'  DC A  53      98.812  67.906 206.278  1.00  0.00     0.180 C 
ATOM   1106  O4'  DC A  53      98.255  68.797 205.274  1.00  0.00    -0.353 OA
ATOM   1107  C3'  DC A  53      97.703  67.813 207.315  1.00  0.00     0.198 C 
ATOM   1108  C1'  DC A  53      97.261  69.617 205.869  1.00  0.00     0.264 C 
ATOM   1109  N1   DC A  53      95.990  69.410 205.154  1.00  0.00    -0.278 N 
ATOM   1110  C2'  DC A  53      97.188  69.245 207.350  1.00  0.00     0.199 C 
ATOM   1111  C6   DC A  53      95.778  68.283 204.408  1.00  0.00     0.102 A 
ATOM   1112  C2   DC A  53      94.996  70.386 205.252  1.00  0.00     0.352 A 
ATOM   1113  C5   DC A  53      94.624  68.092 203.756  1.00  0.00     0.067 A 
ATOM   1114  C4   DC A  53      93.629  69.105 203.877  1.00  0.00     0.128 A 
ATOM   1115  N3   DC A  53      93.825  70.205 204.603  1.00  0.00    -0.177 NA
ATOM   1116  N4   DC A  53      92.459  68.973 203.253  1.00  0.00    -0.384 N 
ATOM   1117  H41  DC A  53      92.268  68.156 202.692  1.00  0.00     0.157 HD
ATOM   1118  H42  DC A  53      91.761  69.699 203.344  1.00  0.00     0.157 HD
ATOM   1119  O2   DC A  53      95.212  71.398 205.933  1.00  0.00    -0.244 OA
ATOM   1120  O2'  DC A  53      98.065  70.089 208.073  1.00  0.00    -0.388 OA
ATOM   1121 2'HO  DC A  53      98.581  69.523 208.649  1.00  0.00     0.210 HD
ATOM   1122  O3'  DC A  53      98.187  67.375 208.581  1.00  0.00    -0.279 OA
ATOM   1123  P    DC A  54      97.175  66.689 209.627  1.00  0.00     0.408 P 
ATOM   1124  OP2  DC A  54      96.364  65.677 208.903  1.00  0.00    -0.624 OA
ATOM   1125  O5'  DC A  54      96.207  67.878 210.063  1.00  0.00    -0.287 OA
ATOM   1126  OP1  DC A  54      97.971  66.280 210.812  1.00  0.00    -0.624 OA
ATOM   1127  C5'  DC A  54      96.703  68.995 210.798  1.00  0.00     0.216 C 
ATOM   1128  C4'  DC A  54      95.597  69.999 211.036  1.00  0.00     0.180 C 
ATOM   1129  O4'  DC A  54      95.159  70.540 209.762  1.00  0.00    -0.353 OA
ATOM   1130  C3'  DC A  54      94.323  69.445 211.655  1.00  0.00     0.198 C 
ATOM   1131  C1'  DC A  54      93.772  70.826 209.820  1.00  0.00     0.264 C 
ATOM   1132  N1   DC A  54      93.094  70.072 208.753  1.00  0.00    -0.278 N 
ATOM   1133  C2'  DC A  54      93.281  70.470 211.225  1.00  0.00     0.199 C 
ATOM   1134  C6   DC A  54      93.645  68.931 208.239  1.00  0.00     0.102 A 
ATOM   1135  C2   DC A  54      91.870  70.540 208.270  1.00  0.00     0.352 A 
ATOM   1136  C5   DC A  54      93.034  68.245 207.267  1.00  0.00     0.067 A 
ATOM   1137  C4   DC A  54      91.786  68.748 206.794  1.00  0.00     0.128 A 
ATOM   1138  N4   DC A  54      91.129  68.110 205.828  1.00  0.00    -0.384 N 
ATOM   1139  N3   DC A  54      91.238  69.855 207.292  1.00  0.00    -0.177 NA
ATOM   1140  H41  DC A  54      91.506  67.267 205.421  1.00  0.00     0.157 HD
ATOM   1141  H42  DC A  54      90.247  68.482 205.501  1.00  0.00     0.157 HD
ATOM   1142  O2   DC A  54      91.390  71.578 208.751  1.00  0.00    -0.244 OA
ATOM   1143  O2'  DC A  54      93.343  71.631 212.031  1.00  0.00    -0.388 OA
ATOM   1144 2'HO  DC A  54      94.078  71.513 212.634  1.00  0.00     0.210 HD
ATOM   1145  O3'  DC A  54      94.428  69.337 213.072  1.00  0.00    -0.279 OA
ATOM   1146  P    DC A  55      93.452  68.341 213.873  1.00  0.00     0.408 P 
ATOM   1147  OP2  DC A  55      93.402  67.045 213.149  1.00  0.00    -0.624 OA
ATOM   1148  OP1  DC A  55      93.860  68.369 215.301  1.00  0.00    -0.624 OA
ATOM   1149  O5'  DC A  55      92.017  69.026 213.757  1.00  0.00    -0.287 OA
ATOM   1150  C5'  DC A  55      91.780  70.330 214.286  1.00  0.00     0.216 C 
ATOM   1151  C4'  DC A  55      90.338  70.727 214.069  1.00  0.00     0.180 C 
ATOM   1152  C3'  DC A  55      89.310  69.637 214.331  1.00  0.00     0.182 C 
ATOM   1153  O4'  DC A  55      90.147  71.068 212.671  1.00  0.00    -0.353 OA
ATOM   1154  C2'  DC A  55      88.131  70.082 213.474  1.00  0.00     0.198 C 
ATOM   1155  O3'  DC A  55      88.971  69.534 215.718  1.00  0.00    -0.390 OA
ATOM   1156  C1'  DC A  55      88.844  70.690 212.264  1.00  0.00     0.264 C 
ATOM   1157  O2'  DC A  55      87.385  71.099 214.118  1.00  0.00    -0.388 OA
ATOM   1158  N1   DC A  55      88.965  69.767 211.124  1.00  0.00    -0.278 N 
ATOM   1159  C2   DC A  55      88.015  69.833 210.100  1.00  0.00     0.352 A 
ATOM   1160  C6   DC A  55      89.985  68.860 211.060  1.00  0.00     0.102 A 
ATOM   1161  N3   DC A  55      88.119  68.993 209.048  1.00  0.00    -0.177 NA
ATOM   1162  O2   DC A  55      87.098  70.662 210.185  1.00  0.00    -0.244 OA
ATOM   1163  C4   DC A  55      89.119  68.112 208.994  1.00  0.00     0.128 A 
ATOM   1164  N4   DC A  55      89.179  67.306 207.935  1.00  0.00    -0.384 N 
ATOM   1165  C5   DC A  55      90.100  68.021 210.023  1.00  0.00     0.067 A 
ATOM   1166  H41  DC A  55      89.918  66.624 207.853  1.00  0.00     0.157 HD
ATOM   1167  H42  DC A  55      88.478  67.387 207.211  1.00  0.00     0.157 HD
ATOM   1168 2'HO  DC A  55      87.467  70.951 215.061  1.00  0.00     0.210 HD
ATOM   1169 3'HO  DC A  55      89.795  69.468 216.206  1.00  0.00     0.210 HD
ATOM   1170  O2'  DA A  44      92.780  85.291 189.669  1.00  0.00    -0.388 OA
ATOM   1171  C1'  DA A  44      93.376  87.439 190.539  1.00  0.00     0.262 C 
ATOM   1172 2'HO  DA A  44      93.339  84.724 189.137  1.00  0.00     0.210 HD
ATOM   1173  N9   DA A  44      93.028  88.855 190.424  1.00  0.00    -0.294 N 
ATOM   1174  C4   DA A  44      91.789  89.408 190.638  1.00  0.00     0.167 A 
ATOM   1175  C8   DA A  44      93.853  89.901 190.088  1.00  0.00     0.214 A 
ATOM   1176  N3   DA A  44      90.659  88.768 190.986  1.00  0.00    -0.222 NA
ATOM   1177  C5   DA A  44      91.940  90.766 190.422  1.00  0.00     0.149 A 
ATOM   1178  C2   DA A  44      89.650  89.628 191.106  1.00  0.00     0.237 A 
ATOM   1179  N1   DA A  44      89.645  90.957 190.933  1.00  0.00    -0.222 NA
ATOM   1180  C6   DA A  44      90.798  91.567 190.585  1.00  0.00     0.155 A 
ATOM   1181  N6   DA A  44      90.792  92.890 190.418  1.00  0.00    -0.382 N 
ATOM   1182  H61  DA A  44      91.643  93.369 190.159  1.00  0.00     0.157 HD
ATOM   1183  H62  DA A  44      89.941  93.415 190.556  1.00  0.00     0.157 HD
ATOM   1184  N7   DA A  44      93.251  91.065 190.075  1.00  0.00    -0.236 NA
ATOM   1185  O2'  DG A  43      97.427  88.628 192.556  1.00  0.00    -0.388 OA
ATOM   1186  C1'  DG A  43      96.615  90.713 193.408  1.00  0.00     0.262 C 
ATOM   1187 2'HO  DG A  43      97.932  88.347 191.792  1.00  0.00     0.210 HD
ATOM   1188  N9   DG A  43      95.421  91.553 193.392  1.00  0.00    -0.293 N 
ATOM   1189  C4   DG A  43      94.121  91.129 193.529  1.00  0.00     0.187 A 
ATOM   1190  C8   DG A  43      95.368  92.916 193.240  1.00  0.00     0.214 A 
ATOM   1191  N3   DG A  43      93.716  89.852 193.699  1.00  0.00    -0.044 NA
ATOM   1192  C5   DG A  43      93.354  92.272 193.455  1.00  0.00     0.173 A 
ATOM   1193  C2   DG A  43      92.401  89.762 193.800  1.00  0.00     0.703 A 
ATOM   1194  N1   DG A  43      91.550  90.834 193.739  1.00  0.00    -0.153 N 
ATOM   1195  N2   DG A  43      91.829  88.567 193.970  1.00  0.00    -0.233 N 
ATOM   1196  H1   DG A  43      90.562  90.651 193.827  1.00  0.00     0.187 HD
ATOM   1197  C6   DG A  43      91.943  92.157 193.566  1.00  0.00     0.292 A 
ATOM   1198  O6   DG A  43      91.091  93.050 193.528  1.00  0.00    -0.265 OA
ATOM   1199  H21  DG A  43      92.410  87.743 194.020  1.00  0.00     0.174 HD
ATOM   1200  H22  DG A  43      90.825  88.487 194.048  1.00  0.00     0.174 HD
ATOM   1201  N7   DG A  43      94.154  93.392 193.273  1.00  0.00    -0.234 NA
ATOM   1202  O2'  DA A  42      99.655  94.336 194.936  1.00  0.00    -0.388 OA
ATOM   1203  C1'  DA A  42      97.915  95.633 195.947  1.00  0.00     0.262 C 
ATOM   1204 2'HO  DA A  42     100.090  94.348 194.083  1.00  0.00     0.210 HD
ATOM   1205  N9   DA A  42      96.465  95.740 196.109  1.00  0.00    -0.294 N 
ATOM   1206  C4   DA A  42      95.583  94.704 196.306  1.00  0.00     0.167 A 
ATOM   1207  C8   DA A  42      95.702  96.882 196.093  1.00  0.00     0.214 A 
ATOM   1208  N3   DA A  42      95.869  93.393 196.394  1.00  0.00    -0.222 NA
ATOM   1209  C5   DA A  42      94.331  95.286 196.393  1.00  0.00     0.149 A 
ATOM   1210  C2   DA A  42      94.759  92.683 196.582  1.00  0.00     0.237 A 
ATOM   1211  N1   DA A  42      93.490  93.102 196.686  1.00  0.00    -0.222 NA
ATOM   1212  C6   DA A  42      93.239  94.426 196.593  1.00  0.00     0.155 A 
ATOM   1213  N6   DA A  42      91.978  94.845 196.696  1.00  0.00    -0.382 N 
ATOM   1214  H61  DA A  42      91.772  95.831 196.629  1.00  0.00     0.157 HD
ATOM   1215  H62  DA A  42      91.228  94.182 196.838  1.00  0.00     0.157 HD
ATOM   1216  N7   DA A  42      94.420  96.665 196.257  1.00  0.00    -0.236 NA
ATOM   1217  O2'  DA A  41      99.567  99.364 197.525  1.00  0.00    -0.388 OA
ATOM   1218  C1'  DA A  41      97.633  99.547 198.922  1.00  0.00     0.262 C 
ATOM   1219 2'HO  DA A  41      99.803  98.930 196.705  1.00  0.00     0.210 HD
ATOM   1220  N9   DA A  41      96.269  99.030 199.034  1.00  0.00    -0.294 N 
ATOM   1221  C8   DA A  41      95.093  99.730 198.925  1.00  0.00     0.214 A 
ATOM   1222  C4   DA A  41      95.909  97.726 199.275  1.00  0.00     0.167 A 
ATOM   1223  N7   DA A  41      94.021  98.989 199.080  1.00  0.00    -0.236 NA
ATOM   1224  C5   DA A  41      94.527  97.715 199.302  1.00  0.00     0.149 A 
ATOM   1225  C6   DA A  41      93.902  96.477 199.538  1.00  0.00     0.155 A 
ATOM   1226  N6   DA A  41      92.580  96.314 199.595  1.00  0.00    -0.382 N 
ATOM   1227  N1   DA A  41      94.694  95.399 199.718  1.00  0.00    -0.222 NA
ATOM   1228  H61  DA A  41      91.971  97.108 199.465  1.00  0.00     0.157 HD
ATOM   1229  H62  DA A  41      92.189  95.398 199.768  1.00  0.00     0.157 HD
ATOM   1230  C2   DA A  41      96.023  95.564 199.664  1.00  0.00     0.237 A 
ATOM   1231  N3   DA A  41      96.726  96.673 199.452  1.00  0.00    -0.222 NA
ATOM   1232  C1'  DT A  39      88.958 103.757 204.864  1.00  0.00     0.264 C 
ATOM   1233  O2'  DT A  39      90.220 105.597 203.996  1.00  0.00    -0.388 OA
ATOM   1234  N1   DT A  39      88.959 102.290 204.970  1.00  0.00    -0.280 N 
ATOM   1235  C2   DT A  39      90.147 101.670 205.312  1.00  0.00     0.331 A 
ATOM   1236  C6   DT A  39      87.820 101.556 204.731  1.00  0.00     0.104 A 
ATOM   1237  O2   DT A  39      91.175 102.283 205.537  1.00  0.00    -0.246 OA
ATOM   1238  N3   DT A  39      90.087 100.301 205.383  1.00  0.00    -0.275 N 
ATOM   1239  C4   DT A  39      88.988  99.507 205.157  1.00  0.00     0.250 A 
ATOM   1240  H3   DT A  39      90.946  99.827 205.621  1.00  0.00     0.173 HD
ATOM   1241  O4   DT A  39      89.092  98.286 205.260  1.00  0.00    -0.268 OA
ATOM   1242  C5   DT A  39      87.799 100.222 204.811  1.00  0.00     0.092 A 
ATOM   1243 2'HO  DT A  39      90.144 106.108 203.189  1.00  0.00     0.210 HD
ATOM   1244  O2'  DA A  37      79.432 102.399 209.623  1.00  0.00    -0.388 OA
ATOM   1245  C1'  DA A  37      81.060 101.014 210.697  1.00  0.00     0.262 C 
ATOM   1246 2'HO  DA A  37      78.787 102.115 208.973  1.00  0.00     0.210 HD
ATOM   1247  N9   DA A  37      82.495 100.738 210.752  1.00  0.00    -0.294 N 
ATOM   1248  C8   DA A  37      83.124  99.517 210.752  1.00  0.00     0.214 A 
ATOM   1249  C4   DA A  37      83.497 101.676 210.812  1.00  0.00     0.167 A 
ATOM   1250  N7   DA A  37      84.431  99.597 210.804  1.00  0.00    -0.236 NA
ATOM   1251  C5   DA A  37      84.679 100.961 210.842  1.00  0.00     0.149 A 
ATOM   1252  C6   DA A  37      85.870 101.706 210.905  1.00  0.00     0.155 A 
ATOM   1253  N1   DA A  37      85.769 103.052 210.927  1.00  0.00    -0.222 NA
ATOM   1254  N6   DA A  37      87.084 101.160 210.944  1.00  0.00    -0.382 N 
ATOM   1255  C2   DA A  37      84.551 103.604 210.893  1.00  0.00     0.237 A 
ATOM   1256  N3   DA A  37      83.359 103.012 210.837  1.00  0.00    -0.222 NA
ATOM   1257  H62  DA A  37      87.898 101.754 211.004  1.00  0.00     0.157 HD
ATOM   1258  H61  DA A  37      87.188 100.154 210.929  1.00  0.00     0.157 HD
ATOM   1259  O2'  DC A  36      79.369  94.782 210.284  1.00  0.00    -0.388 OA
ATOM   1260  C1'  DC A  36      80.339  92.728 209.532  1.00  0.00     0.264 C 
ATOM   1261 2'HO  DC A  36      79.295  95.298 209.480  1.00  0.00     0.210 HD
ATOM   1262  N1   DC A  36      79.942  91.654 210.455  1.00  0.00    -0.278 N 
ATOM   1263  C2   DC A  36      78.669  91.089 210.330  1.00  0.00     0.352 A 
ATOM   1264  C6   DC A  36      80.801  91.211 211.422  1.00  0.00     0.102 A 
ATOM   1265  O2   DC A  36      77.909  91.508 209.443  1.00  0.00    -0.244 OA
ATOM   1266  N3   DC A  36      78.298  90.105 211.177  1.00  0.00    -0.177 NA
ATOM   1267  C4   DC A  36      79.142  89.682 212.119  1.00  0.00     0.128 A 
ATOM   1268  C5   DC A  36      80.445  90.236 212.268  1.00  0.00     0.067 A 
ATOM   1269  N4   DC A  36      78.728  88.713 212.934  1.00  0.00    -0.384 N 
ATOM   1270  H42  DC A  36      77.802  88.329 212.812  1.00  0.00     0.157 HD
ATOM   1271  H41  DC A  36      79.332  88.365 213.664  1.00  0.00     0.157 HD
ATOM   1272  C1'  DA A  32      94.006 100.483 210.364  1.00  0.00     0.262 C 
ATOM   1273  O2'  DA A  32      93.942 102.533 211.598  1.00  0.00    -0.388 OA
ATOM   1274  N9   DA A  32      92.986  99.515 209.957  1.00  0.00    -0.294 N 
ATOM   1275  C4   DA A  32      91.715  99.819 209.533  1.00  0.00     0.167 A 
ATOM   1276  C8   DA A  32      93.079  98.147 209.915  1.00  0.00     0.214 A 
ATOM   1277  N3   DA A  32      91.168 101.040 209.410  1.00  0.00    -0.222 NA
ATOM   1278  C5   DA A  32      91.109  98.608 209.259  1.00  0.00     0.149 A 
ATOM   1279  C2   DA A  32      89.914 100.951 208.975  1.00  0.00     0.237 A 
ATOM   1280  N1   DA A  32      89.199  99.861 208.669  1.00  0.00    -0.222 NA
ATOM   1281  C6   DA A  32      89.779  98.649 208.803  1.00  0.00     0.155 A 
ATOM   1282  N6   DA A  32      89.065  97.566 208.496  1.00  0.00    -0.382 N 
ATOM   1283  H61  DA A  32      89.478  96.649 208.588  1.00  0.00     0.157 HD
ATOM   1284  H62  DA A  32      88.113  97.665 208.173  1.00  0.00     0.157 HD
ATOM   1285  N7   DA A  32      91.983  97.556 209.504  1.00  0.00    -0.236 NA
ATOM   1286 2'HO  DA A  32      94.564 102.768 212.287  1.00  0.00     0.210 HD
ENDBRANCH 698 701
ENDBRANCH 697 698
ENDBRANCH 657 697
ENDBRANCH 537 538
ENDBRANCH 536 537
ENDBRANCH 533 536
ENDBRANCH 532 533
ENDBRANCH 515 532
ENDBRANCH 510 511
ENDBRANCH 509 510
ENDBRANCH 506 509
ENDBRANCH 505 506
ENDBRANCH 490 505
ENDBRANCH 485 486
ENDBRANCH 484 485
ENDBRANCH 481 484
ENDBRANCH 480 481
ENDBRANCH 463 480
ENDBRANCH 458 459
ENDBRANCH 457 458
ENDBRANCH 454 457
ENDBRANCH 453 454
ENDBRANCH 438 453
ENDBRANCH 433 434
ENDBRANCH 432 433
ENDBRANCH 429 432
ENDBRANCH 428 429
ENDBRANCH 424 428
BRANCH 425 1287
ATOM   1287  O2'  DG A  20      97.156  92.264 178.100  1.00  0.00    -0.388 OA
ATOM   1288 2'HO  DG A  20      98.025  91.899 177.929  1.00  0.00     0.210 HD
ENDBRANCH 425 1287
BRANCH 426 1289
ATOM   1289  N9   DG A  20      98.693  94.089 180.871  1.00  0.00    -0.293 N 
ATOM   1290  C8   DG A  20      98.759  93.155 181.876  1.00  0.00     0.214 A 
ATOM   1291  N7   DG A  20      99.340  93.599 182.955  1.00  0.00    -0.234 NA
ATOM   1292  C5   DG A  20      99.676  94.912 182.647  1.00  0.00     0.173 A 
ATOM   1293  C6   DG A  20     100.331  95.903 183.425  1.00  0.00     0.292 A 
ATOM   1294  C4   DG A  20      99.280  95.229 181.365  1.00  0.00     0.187 A 
ATOM   1295  O6   DG A  20     100.761  95.818 184.581  1.00  0.00    -0.265 OA
ATOM   1296  N1   DG A  20     100.469  97.095 182.722  1.00  0.00    -0.153 N 
ATOM   1297  H1   DG A  20     100.927  97.859 183.194  1.00  0.00     0.187 HD
ATOM   1298  C2   DG A  20     100.033  97.309 181.440  1.00  0.00     0.703 A 
ATOM   1299  N3   DG A  20      99.425  96.396 180.704  1.00  0.00    -0.044 NA
BRANCH 1298 1300
ATOM   1300  N2   DG A  20     100.255  98.525 180.938  1.00  0.00    -0.233 N 
ATOM   1301  H22  DG A  20     100.876  98.645 180.150  1.00  0.00     0.174 HD
ATOM   1302  H21  DG A  20      99.784  99.321 181.343  1.00  0.00     0.174 HD
ENDBRANCH 1298 1300
ENDBRANCH 426 1289
ENDBRANCH 422 423
ENDBRANCH 421 422
ENDBRANCH 418 421
ENDBRANCH 417 418
ENDBRANCH 400 417
ENDBRANCH 395 396
ENDBRANCH 394 395
ENDBRANCH 391 394
ENDBRANCH 390 391
ENDBRANCH 373 390
ENDBRANCH 368 369
ENDBRANCH 367 368
ENDBRANCH 364 367
ENDBRANCH 363 364
ENDBRANCH 359 363
BRANCH 360 1303
ATOM   1303  O2'  DT A  17      95.300 113.592 183.745  1.00  0.00    -0.388 OA
ATOM   1304 2'HO  DT A  17      95.092 112.742 184.135  1.00  0.00     0.210 HD
ENDBRANCH 360 1303
BRANCH 361 1305
ATOM   1305  N1   DT A  17      95.161 115.374 186.403  1.00  0.00    -0.280 N 
ATOM   1306  C2   DT A  17      93.780 115.330 186.377  1.00  0.00     0.331 A 
ATOM   1307  N3   DT A  17      93.155 116.483 186.778  1.00  0.00    -0.275 N 
ATOM   1308  O2   DT A  17      93.154 114.345 186.028  1.00  0.00    -0.246 OA
ATOM   1309  H3   DT A  17      92.147 116.472 186.770  1.00  0.00     0.173 HD
ATOM   1310  C4   DT A  17      93.756 117.650 187.190  1.00  0.00     0.250 A 
ATOM   1311  O4   DT A  17      93.054 118.604 187.522  1.00  0.00    -0.268 OA
ATOM   1312  C5   DT A  17      95.185 117.617 187.187  1.00  0.00     0.092 A 
ATOM   1313  C6   DT A  17      95.828 116.510 186.804  1.00  0.00     0.104 A 
ENDBRANCH 361 1305
ENDBRANCH 357 358
ENDBRANCH 356 357
ENDBRANCH 353 356
ENDBRANCH 352 353
ENDBRANCH 348 352
BRANCH 349 1314
ATOM   1314  O2'  DT A  16      99.365 113.743 191.469  1.00  0.00    -0.388 OA
ATOM   1315 2'HO  DT A  16      99.690 113.201 190.749  1.00  0.00     0.210 HD
ENDBRANCH 349 1314
BRANCH 350 1316
ATOM   1316  N1   DT A  16      96.689 116.206 191.688  1.00  0.00    -0.280 N 
ATOM   1317  C6   DT A  16      96.563 117.440 191.090  1.00  0.00     0.104 A 
ATOM   1318  C5   DT A  16      95.375 117.968 190.785  1.00  0.00     0.092 A 
ATOM   1319  C4   DT A  16      94.176 117.251 191.081  1.00  0.00     0.250 A 
ATOM   1320  O4   DT A  16      93.030 117.624 190.836  1.00  0.00    -0.268 OA
ATOM   1321  N3   DT A  16      94.373 116.029 191.683  1.00  0.00    -0.275 N 
ATOM   1322  H3   DT A  16      93.543 115.504 191.914  1.00  0.00     0.173 HD
ATOM   1323  C2   DT A  16      95.573 115.454 192.010  1.00  0.00     0.331 A 
ATOM   1324  O2   DT A  16      95.642 114.362 192.544  1.00  0.00    -0.246 OA
ENDBRANCH 350 1316
ENDBRANCH 346 347
ENDBRANCH 345 346
ENDBRANCH 342 345
ENDBRANCH 341 342
ENDBRANCH 337 341
BRANCH 338 1325
ATOM   1325  O2'  DG A  15     101.765 119.589 188.040  1.00  0.00    -0.388 OA
ATOM   1326 2'HO  DG A  15     101.274 118.979 188.589  1.00  0.00     0.210 HD
ENDBRANCH 338 1325
BRANCH 339 1327
ATOM   1327  N9   DG A  15     102.455 123.148 187.965  1.00  0.00    -0.293 N 
ATOM   1328  C4   DG A  15     103.746 123.599 187.841  1.00  0.00     0.187 A 
ATOM   1329  C5   DG A  15     103.759 124.840 188.441  1.00  0.00     0.173 A 
ATOM   1330  N3   DG A  15     104.762 122.940 187.249  1.00  0.00    -0.044 NA
ATOM   1331  N7   DG A  15     102.501 125.164 188.932  1.00  0.00    -0.234 NA
ATOM   1332  C6   DG A  15     104.976 125.570 188.472  1.00  0.00     0.292 A 
ATOM   1333  C8   DG A  15     101.763 124.131 188.626  1.00  0.00     0.214 A 
ATOM   1334  O6   DG A  15     105.195 126.686 188.956  1.00  0.00    -0.265 OA
ATOM   1335  N1   DG A  15     106.009 124.871 187.858  1.00  0.00    -0.153 N 
ATOM   1336  H1   DG A  15     106.913 125.314 187.834  1.00  0.00     0.187 HD
ATOM   1337  C2   DG A  15     105.887 123.630 187.287  1.00  0.00     0.703 A 
BRANCH 1337 1338
ATOM   1338  N2   DG A  15     106.995 123.118 186.745  1.00  0.00    -0.233 N 
ATOM   1339  H22  DG A  15     107.865 123.113 187.256  1.00  0.00     0.174 HD
ATOM   1340  H21  DG A  15     106.953 122.733 185.812  1.00  0.00     0.174 HD
ENDBRANCH 1337 1338
ENDBRANCH 339 1327
ENDBRANCH 335 336
ENDBRANCH 334 335
ENDBRANCH 331 334
ENDBRANCH 330 331
ENDBRANCH 326 330
BRANCH 327 1341
ATOM   1341  O2'  DA A  14      94.486 124.471 187.790  1.00  0.00    -0.388 OA
ATOM   1342 2'HO  DA A  14      94.417 124.985 188.595  1.00  0.00     0.210 HD
ENDBRANCH 327 1341
BRANCH 328 1343
ATOM   1343  N9   DA A  14      90.939 124.244 186.909  1.00  0.00    -0.294 N 
ATOM   1344  C8   DA A  14      90.067 123.517 186.137  1.00  0.00     0.214 A 
ATOM   1345  N7   DA A  14      88.842 123.493 186.603  1.00  0.00    -0.236 NA
ATOM   1346  C5   DA A  14      88.913 124.254 187.762  1.00  0.00     0.149 A 
ATOM   1347  C4   DA A  14      90.198 124.723 187.962  1.00  0.00     0.167 A 
ATOM   1348  C6   DA A  14      87.947 124.614 188.720  1.00  0.00     0.155 A 
ATOM   1349  N3   DA A  14      90.627 125.488 188.980  1.00  0.00    -0.222 NA
ATOM   1350  C2   DA A  14      89.629 125.760 189.817  1.00  0.00     0.237 A 
ATOM   1351  N1   DA A  14      88.345 125.382 189.756  1.00  0.00    -0.222 NA
BRANCH 1348 1352
ATOM   1352  N6   DA A  14      86.669 124.239 188.661  1.00  0.00    -0.382 N 
ATOM   1353  H61  DA A  14      85.976 124.865 188.277  1.00  0.00     0.157 HD
ATOM   1354  H62  DA A  14      86.399 123.329 189.006  1.00  0.00     0.157 HD
ENDBRANCH 1348 1352
ENDBRANCH 328 1343
ENDBRANCH 324 325
ENDBRANCH 323 324
ENDBRANCH 320 323
ENDBRANCH 319 320
ENDBRANCH 318 319
BRANCH 317 1355
ATOM   1355  O2'  DC A  13      90.675 121.651 180.794  1.00  0.00    -0.388 OA
ATOM   1356 2'HO  DC A  13      91.017 120.804 181.082  1.00  0.00     0.210 HD
ENDBRANCH 317 1355
BRANCH 315 1357
ATOM   1357  N4   DC A  13      91.357 128.192 184.422  1.00  0.00    -0.384 N 
ATOM   1358  H41  DC A  13      91.694 129.004 183.925  1.00  0.00     0.157 HD
ATOM   1359  H42  DC A  13      91.319 128.194 185.431  1.00  0.00     0.157 HD
ENDBRANCH 315 1357
TORSDOF 427
ENDMDL
MODEL 7
REMARK VINA RESULT:      -6.9      1.671      2.872
REMARK WARNING: 32 MAX_TORS EXCEEDED!!!
REMARK  99 active torsions:
REMARK  status: ('A' for Active; 'I' for Inactive)
REMARK       I    between atoms: O5'_2  and  C5'_3 
REMARK       I    between atoms: C5'_3  and  C4'_4 
REMARK       I    between atoms: C1'_6  and  N9_7 
REMARK       I    between atoms: C2_10  and  N2_11 
REMARK       I    between atoms: C2'_21  and  O2'_22 
REMARK       I    between atoms: C3'_24  and  O3'_25 
REMARK       I    between atoms: O3'_25  and  P_26 
REMARK       I    between atoms: P_26  and  O5'_29 
REMARK       I    between atoms: O5'_29  and  C5'_30 
REMARK       I    between atoms: C5'_30  and  C4'_31 
REMARK       I    between atoms: C1'_33  and  N9_34 
REMARK       I    between atoms: C2_37  and  N2_38 
REMARK       I    between atoms: C2'_48  and  O2'_49 
REMARK       I    between atoms: C3'_51  and  O3'_52 
REMARK       I    between atoms: O3'_52  and  P_53 
REMARK       I    between atoms: P_53  and  O5'_56 
REMARK       I    between atoms: O5'_56  and  C5'_57 
REMARK       I    between atoms: C5'_57  and  C4'_58 
REMARK       I    between atoms: C1'_60  and  N9_61 
REMARK       I    between atoms: C2_64  and  N2_65 
REMARK       I    between atoms: C2'_75  and  O2'_76 
REMARK       I    between atoms: C3'_78  and  O3'_79 
REMARK       I    between atoms: O3'_79  and  P_80 
REMARK       I    between atoms: P_80  and  O5'_83 
REMARK       I    between atoms: O5'_83  and  C5'_84 
REMARK       I    between atoms: C5'_84  and  C4'_85 
REMARK       I    between atoms: C1'_87  and  N9_88 
REMARK       I    between atoms: C2_91  and  N2_92 
REMARK       I    between atoms: C2'_102  and  O2'_103 
REMARK       I    between atoms: C3'_105  and  O3'_106 
REMARK       I    between atoms: O3'_106  and  P_107 
REMARK       I    between atoms: P_107  and  O5'_110 
REMARK       I    between atoms: O5'_110  and  C5'_111 
REMARK       I    between atoms: C5'_111  and  C4'_112 
REMARK       I    between atoms: C1'_114  and  N9_115 
REMARK       I    between atoms: C2_118  and  N2_119 
REMARK       I    between atoms: C2'_129  and  O2'_130 
REMARK       I    between atoms: C3'_132  and  O3'_133 
REMARK       I    between atoms: O3'_133  and  P_134 
REMARK       I    between atoms: P_134  and  O5'_137 
REMARK       I    between atoms: O5'_137  and  C5'_138 
REMARK       I    between atoms: C5'_138  and  C4'_139 
REMARK       I    between atoms: C1'_141  and  N1_142 
REMARK       I    between atoms: C2'_151  and  O2'_152 
REMARK       I    between atoms: C3'_154  and  O3'_155 
REMARK       I    between atoms: O3'_155  and  P_156 
REMARK       I    between atoms: P_156  and  O5'_159 
REMARK       I    between atoms: O5'_159  and  C5'_160 
REMARK       I    between atoms: C5'_160  and  C4'_161 
REMARK       I    between atoms: C1'_163  and  N9_164 
REMARK       I    between atoms: C2_167  and  N2_168 
REMARK       I    between atoms: C2'_178  and  O2'_179 
REMARK       I    between atoms: C3'_181  and  O3'_182 
REMARK       I    between atoms: O3'_182  and  P_183 
REMARK       I    between atoms: P_183  and  O5'_186 
REMARK       I    between atoms: O5'_186  and  C5'_187 
REMARK       I    between atoms: C5'_187  and  C4'_188 
REMARK       I    between atoms: C1'_190  and  N1_191 
REMARK       I    between atoms: C2'_200  and  O2'_201 
REMARK       I    between atoms: C3'_203  and  O3'_204 
REMARK       I    between atoms: O3'_204  and  P_205 
REMARK       I    between atoms: P_205  and  O5'_208 
REMARK       I    between atoms: O5'_208  and  C5'_209 
REMARK       I    between atoms: C5'_209  and  C4'_210 
REMARK       I    between atoms: C1'_212  and  N9_213 
REMARK       I    between atoms: C6_218  and  N6_219 
REMARK       I    between atoms: C2'_225  and  O2'_226 
REMARK       I    between atoms: C3'_228  and  O3'_229 
REMARK       I    between atoms: O3'_229  and  P_230 
REMARK       I    between atoms: P_230  and  O5'_233 
REMARK       I    between atoms: O5'_233  and  C5'_234 
REMARK       I    between atoms: C5'_234  and  C4'_235 
REMARK       I    between atoms: C1'_237  and  N9_238 
REMARK       I    between atoms: C2_241  and  N2_242 
REMARK       I    between atoms: C2'_252  and  O2'_253 
REMARK       I    between atoms: C3'_255  and  O3'_256 
REMARK       I    between atoms: O3'_256  and  P_257 
REMARK       I    between atoms: P_257  and  O5'_260 
REMARK       I    between atoms: O5'_260  and  C5'_261 
REMARK       I    between atoms: C5'_261  and  C4'_262 
REMARK       I    between atoms: C1'_264  and  N1_265 
REMARK       I    between atoms: C4_270  and  N4_271 
REMARK       I    between atoms: C2'_275  and  O2'_276 
REMARK       I    between atoms: C3'_278  and  O3'_279 
REMARK       I    between atoms: O3'_279  and  P_280 
REMARK       I    between atoms: P_280  and  O5'_283 
REMARK       I    between atoms: O5'_283  and  C5'_284 
REMARK       I    between atoms: C5'_284  and  C4'_285 
REMARK       I    between atoms: C1'_287  and  N1_288 
REMARK       I    between atoms: C2'_297  and  O2'_298 
REMARK       I    between atoms: C3'_300  and  O3'_301 
REMARK       I    between atoms: O3'_301  and  P_302 
REMARK       I    between atoms: P_302  and  O5'_305 
REMARK       I    between atoms: O5'_305  and  C5'_306 
REMARK       I    between atoms: C5'_306  and  C4'_307 
REMARK       I    between atoms: C1'_309  and  N1_310 
REMARK    1  A    between atoms: C4_315  and  N4_316 
REMARK    2  A    between atoms: C2'_320  and  O2'_321 
REMARK    3  A    between atoms: C3'_323  and  O3'_324 
REMARK    4  A    between atoms: O3'_324  and  P_325 
REMARK    5  A    between atoms: P_325  and  O5'_328 
REMARK    6  A    between atoms: O5'_328  and  C5'_329 
REMARK    7  A    between atoms: C5'_329  and  C4'_330 
REMARK    8  A    between atoms: C1'_332  and  N9_333 
REMARK    9  A    between atoms: C6_338  and  N6_339 
REMARK   10  A    between atoms: C2'_345  and  O2'_346 
REMARK   11  A    between atoms: C3'_348  and  O3'_349 
REMARK   12  A    between atoms: O3'_349  and  P_350 
REMARK   13  A    between atoms: P_350  and  O5'_353 
REMARK   14  A    between atoms: O5'_353  and  C5'_354 
REMARK   15  A    between atoms: C5'_354  and  C4'_355 
REMARK   16  A    between atoms: C1'_357  and  N9_358 
REMARK   17  A    between atoms: C2_361  and  N2_362 
REMARK   18  A    between atoms: C2'_372  and  O2'_373 
REMARK   19  A    between atoms: C3'_375  and  O3'_376 
REMARK   20  A    between atoms: O3'_376  and  P_377 
REMARK   21  A    between atoms: P_377  and  O5'_380 
REMARK   22  A    between atoms: O5'_380  and  C5'_381 
REMARK   23  A    between atoms: C5'_381  and  C4'_382 
REMARK   24  A    between atoms: C1'_384  and  N1_385 
REMARK   25  A    between atoms: C2'_394  and  O2'_395 
REMARK   26  A    between atoms: C3'_397  and  O3'_398 
REMARK   27  A    between atoms: O3'_398  and  P_399 
REMARK   28  A    between atoms: P_399  and  O5'_402 
REMARK   29  A    between atoms: O5'_402  and  C5'_403 
REMARK   30  A    between atoms: C5'_403  and  C4'_404 
REMARK   31  A    between atoms: C1'_406  and  N1_407 
REMARK   32  A    between atoms: C2'_416  and  O2'_417 
REMARK   33  A    between atoms: C3'_419  and  O3'_420 
REMARK   34  A    between atoms: O3'_420  and  P_421 
REMARK   35  A    between atoms: P_421  and  O5'_424 
REMARK   36  A    between atoms: O5'_424  and  C5'_425 
REMARK   37  A    between atoms: C5'_425  and  C4'_426 
REMARK   38  A    between atoms: C1'_428  and  N9_429 
REMARK   39  A    between atoms: C2_432  and  N2_433 
REMARK   40  A    between atoms: C2'_443  and  O2'_444 
REMARK   41  A    between atoms: C3'_446  and  O3'_447 
REMARK   42  A    between atoms: O3'_447  and  P_448 
REMARK   43  A    between atoms: P_448  and  O5'_451 
REMARK   44  A    between atoms: O5'_451  and  C5'_452 
REMARK   45  A    between atoms: C5'_452  and  C4'_453 
REMARK   46  A    between atoms: C1'_455  and  N9_456 
REMARK   47  A    between atoms: C2_459  and  N2_460 
REMARK   48  A    between atoms: C2'_470  and  O2'_471 
REMARK   49  A    between atoms: C3'_473  and  O3'_474 
REMARK   50  A    between atoms: O3'_474  and  P_475 
REMARK   51  A    between atoms: P_475  and  O5'_478 
REMARK   52  A    between atoms: O5'_478  and  C5'_479 
REMARK   53  A    between atoms: C5'_479  and  C4'_480 
REMARK   54  A    between atoms: C1'_482  and  N9_483 
REMARK   55  A    between atoms: C2_486  and  N2_487 
REMARK   56  A    between atoms: C2'_497  and  O2'_498 
REMARK   57  A    between atoms: C3'_500  and  O3'_501 
REMARK   58  A    between atoms: O3'_501  and  P_502 
REMARK   59  A    between atoms: P_502  and  O5'_505 
REMARK   60  A    between atoms: O5'_505  and  C5'_506 
REMARK   61  A    between atoms: C5'_506  and  C4'_507 
REMARK   62  A    between atoms: C1'_509  and  N9_510 
REMARK   63  A    between atoms: C6_515  and  N6_516 
REMARK   64  A    between atoms: C2'_522  and  O2'_523 
REMARK   65  A    between atoms: C3'_525  and  O3'_526 
REMARK   66  A    between atoms: O3'_526  and  P_527 
REMARK   67  A    between atoms: P_527  and  O5'_530 
REMARK   68  A    between atoms: O5'_530  and  C5'_531 
REMARK   69  A    between atoms: C5'_531  and  C4'_532 
REMARK   70  A    between atoms: C1'_534  and  N9_535 
REMARK   71  A    between atoms: C2_538  and  N2_539 
REMARK   72  A    between atoms: C2'_549  and  O2'_550 
REMARK   73  A    between atoms: C3'_552  and  O3'_553 
REMARK   74  A    between atoms: O3'_553  and  P_554 
REMARK   75  A    between atoms: P_554  and  O5'_557 
REMARK   76  A    between atoms: O5'_557  and  C5'_558 
REMARK   77  A    between atoms: C5'_558  and  C4'_559 
REMARK   78  A    between atoms: C1'_561  and  N9_562 
REMARK   79  A    between atoms: C6_567  and  N6_568 
REMARK   80  A    between atoms: C2'_574  and  O2'_575 
REMARK   81  A    between atoms: C3'_577  and  O3'_578 
REMARK   82  A    between atoms: O3'_578  and  P_579 
REMARK   83  A    between atoms: P_579  and  O5'_582 
REMARK   84  A    between atoms: O5'_582  and  C5'_583 
REMARK   85  A    between atoms: C5'_583  and  C4'_584 
REMARK   86  A    between atoms: C1'_586  and  N9_587 
REMARK   87  A    between atoms: C2_590  and  N2_591 
REMARK   88  A    between atoms: C2'_601  and  O2'_602 
REMARK   89  A    between atoms: C3'_604  and  O3'_605 
REMARK   90  A    between atoms: O3'_605  and  P_606 
REMARK   91  A    between atoms: P_606  and  O5'_609 
REMARK   92  A    between atoms: O5'_609  and  C5'_610 
REMARK   93  A    between atoms: C5'_610  and  C4'_611 
REMARK   94  A    between atoms: C1'_613  and  N1_614 
REMARK       I    between atoms: C4_619  and  N4_620 
REMARK       I    between atoms: C2'_624  and  O2'_625 
REMARK       I    between atoms: C3'_627  and  O3'_628 
REMARK       I    between atoms: O3'_628  and  P_629 
REMARK       I    between atoms: P_629  and  O5'_632 
REMARK       I    between atoms: O5'_632  and  C5'_633 
REMARK       I    between atoms: C5'_633  and  C4'_634 
REMARK       I    between atoms: C1'_636  and  N9_637 
REMARK       I    between atoms: C2_640  and  N2_641 
REMARK       I    between atoms: C2'_651  and  O2'_652 
REMARK       I    between atoms: C3'_654  and  O3'_655 
REMARK       I    between atoms: O3'_655  and  P_656 
REMARK       I    between atoms: P_656  and  O5'_659 
REMARK       I    between atoms: O5'_659  and  C5'_660 
REMARK       I    between atoms: C5'_660  and  C4'_661 
REMARK       I    between atoms: C1'_663  and  N1_664 
REMARK       I    between atoms: C4_669  and  N4_670 
REMARK       I    between atoms: C2'_674  and  O2'_675 
REMARK       I    between atoms: C3'_677  and  O3'_678 
REMARK       I    between atoms: O3'_678  and  P_679 
REMARK       I    between atoms: P_679  and  O5'_682 
REMARK       I    between atoms: O5'_682  and  C5'_683 
REMARK       I    between atoms: C5'_683  and  C4'_684 
REMARK       I    between atoms: C1'_686  and  N1_687 
REMARK       I    between atoms: C2'_696  and  O2'_697 
REMARK       I    between atoms: C3'_699  and  O3'_700 
REMARK       I    between atoms: O3'_700  and  P_701 
REMARK       I    between atoms: P_701  and  O5'_704 
REMARK       I    between atoms: O5'_704  and  C5'_705 
REMARK       I    between atoms: C5'_705  and  C4'_706 
REMARK       I    between atoms: C1'_708  and  N1_709 
REMARK       I    between atoms: C2'_718  and  O2'_719 
REMARK       I    between atoms: C3'_721  and  O3'_722 
REMARK       I    between atoms: O3'_722  and  P_723 
REMARK       I    between atoms: P_723  and  O5'_726 
REMARK       I    between atoms: O5'_726  and  C5'_727 
REMARK       I    between atoms: C5'_727  and  C4'_728 
REMARK       I    between atoms: C1'_730  and  N1_731 
REMARK       I    between atoms: C4_736  and  N4_737 
REMARK       I    between atoms: C2'_741  and  O2'_742 
REMARK       I    between atoms: C3'_744  and  O3'_745 
REMARK       I    between atoms: O3'_745  and  P_746 
REMARK       I    between atoms: P_746  and  O5'_749 
REMARK       I    between atoms: O5'_749  and  C5'_750 
REMARK       I    between atoms: C5'_750  and  C4'_751 
REMARK       I    between atoms: C1'_753  and  N9_754 
REMARK   95  A    between atoms: C6_759  and  N6_760 
REMARK   96  A    between atoms: C2'_766  and  O2'_767 
REMARK   97  A    between atoms: C3'_769  and  O3'_770 
REMARK   98  A    between atoms: O3'_770  and  P_771 
REMARK   99  A    between atoms: P_771  and  O5'_774 
REMARK       I    between atoms: O5'_774  and  C5'_775 
REMARK       I    between atoms: C5'_775  and  C4'_776 
REMARK       I    between atoms: C1'_778  and  N9_779 
REMARK       I    between atoms: C6_784  and  N6_785 
REMARK       I    between atoms: C2'_791  and  O2'_792 
REMARK       I    between atoms: C3'_794  and  O3'_795 
REMARK       I    between atoms: O3'_795  and  P_796 
REMARK       I    between atoms: P_796  and  O5'_799 
REMARK       I    between atoms: O5'_799  and  C5'_800 
REMARK       I    between atoms: C5'_800  and  C4'_801 
REMARK       I    between atoms: C1'_803  and  N1_804 
REMARK       I    between atoms: C2'_813  and  O2'_814 
REMARK       I    between atoms: C3'_816  and  O3'_817 
REMARK       I    between atoms: O3'_817  and  P_818 
REMARK       I    between atoms: P_818  and  O5'_821 
REMARK       I    between atoms: O5'_821  and  C5'_822 
REMARK       I    between atoms: C5'_822  and  C4'_823 
REMARK       I    between atoms: C1'_825  and  N9_826 
REMARK       I    between atoms: C2_829  and  N2_830 
REMARK       I    between atoms: C2'_840  and  O2'_841 
REMARK       I    between atoms: C3'_843  and  O3'_844 
REMARK       I    between atoms: O3'_844  and  P_845 
REMARK       I    between atoms: P_845  and  O5'_848 
REMARK       I    between atoms: O5'_848  and  C5'_849 
REMARK       I    between atoms: C5'_849  and  C4'_850 
REMARK       I    between atoms: C1'_852  and  N9_853 
REMARK       I    between atoms: C2_856  and  N2_857 
REMARK       I    between atoms: C2'_867  and  O2'_868 
REMARK       I    between atoms: C3'_870  and  O3'_871 
REMARK       I    between atoms: O3'_871  and  P_872 
REMARK       I    between atoms: P_872  and  O5'_875 
REMARK       I    between atoms: O5'_875  and  C5'_876 
REMARK       I    between atoms: C5'_876  and  C4'_877 
REMARK       I    between atoms: C1'_879  and  N1_880 
REMARK       I    between atoms: C4_885  and  N4_886 
REMARK       I    between atoms: C2'_890  and  O2'_891 
REMARK       I    between atoms: C3'_893  and  O3'_894 
REMARK       I    between atoms: O3'_894  and  P_895 
REMARK       I    between atoms: P_895  and  O5'_898 
REMARK       I    between atoms: O5'_898  and  C5'_899 
REMARK       I    between atoms: C5'_899  and  C4'_900 
REMARK       I    between atoms: C1'_902  and  N9_903 
REMARK       I    between atoms: C6_908  and  N6_909 
REMARK       I    between atoms: C2'_915  and  O2'_916 
REMARK       I    between atoms: C3'_918  and  O3'_919 
REMARK       I    between atoms: O3'_919  and  P_920 
REMARK       I    between atoms: P_920  and  O5'_923 
REMARK       I    between atoms: O5'_923  and  C5'_924 
REMARK       I    between atoms: C5'_924  and  C4'_925 
REMARK       I    between atoms: C1'_927  and  N1_928 
REMARK       I    between atoms: C2'_937  and  O2'_938 
REMARK       I    between atoms: C3'_940  and  O3'_941 
REMARK       I    between atoms: O3'_941  and  P_942 
REMARK       I    between atoms: P_942  and  O5'_945 
REMARK       I    between atoms: O5'_945  and  C5'_946 
REMARK       I    between atoms: C5'_946  and  C4'_947 
REMARK       I    between atoms: C1'_949  and  N1_950 
REMARK       I    between atoms: C2'_959  and  O2'_960 
REMARK       I    between atoms: C3'_962  and  O3'_963 
REMARK       I    between atoms: O3'_963  and  P_964 
REMARK       I    between atoms: P_964  and  O5'_967 
REMARK       I    between atoms: O5'_967  and  C5'_968 
REMARK       I    between atoms: C5'_968  and  C4'_969 
REMARK       I    between atoms: C1'_971  and  N9_972 
REMARK       I    between atoms: C2_975  and  N2_976 
REMARK       I    between atoms: C2'_986  and  O2'_987 
REMARK       I    between atoms: C3'_989  and  O3'_990 
REMARK       I    between atoms: O3'_990  and  P_991 
REMARK       I    between atoms: P_991  and  O5'_994 
REMARK       I    between atoms: O5'_994  and  C5'_995 
REMARK       I    between atoms: C5'_995  and  C4'_996 
REMARK       I    between atoms: C1'_998  and  N9_999 
REMARK       I    between atoms: C6_1004  and  N6_1005 
REMARK       I    between atoms: C2'_1011  and  O2'_1012 
REMARK       I    between atoms: C3'_1014  and  O3'_1015 
REMARK       I    between atoms: O3'_1015  and  P_1016 
REMARK       I    between atoms: P_1016  and  O5'_1019 
REMARK       I    between atoms: O5'_1019  and  C5'_1020 
REMARK       I    between atoms: C5'_1020  and  C4'_1021 
REMARK       I    between atoms: C1'_1023  and  N9_1024 
REMARK       I    between atoms: C6_1029  and  N6_1030 
REMARK       I    between atoms: C2'_1036  and  O2'_1037 
REMARK       I    between atoms: C3'_1039  and  O3'_1040 
REMARK       I    between atoms: O3'_1040  and  P_1041 
REMARK       I    between atoms: P_1041  and  O5'_1044 
REMARK       I    between atoms: O5'_1044  and  C5'_1045 
REMARK       I    between atoms: C5'_1045  and  C4'_1046 
REMARK       I    between atoms: C1'_1048  and  N9_1049 
REMARK       I    between atoms: C2_1052  and  N2_1053 
REMARK       I    between atoms: C2'_1063  and  O2'_1064 
REMARK       I    between atoms: C3'_1066  and  O3'_1067 
REMARK       I    between atoms: O3'_1067  and  P_1068 
REMARK       I    between atoms: P_1068  and  O5'_1071 
REMARK       I    between atoms: O5'_1071  and  C5'_1072 
REMARK       I    between atoms: C5'_1072  and  C4'_1073 
REMARK       I    between atoms: C1'_1075  and  N9_1076 
REMARK       I    between atoms: C6_1081  and  N6_1082 
REMARK       I    between atoms: C2'_1088  and  O2'_1089 
REMARK       I    between atoms: C3'_1091  and  O3'_1092 
REMARK       I    between atoms: O3'_1092  and  P_1093 
REMARK       I    between atoms: P_1093  and  O5'_1096 
REMARK       I    between atoms: O5'_1096  and  C5'_1097 
REMARK       I    between atoms: C5'_1097  and  C4'_1098 
REMARK       I    between atoms: C1'_1100  and  N9_1101 
REMARK       I    between atoms: C2_1104  and  N2_1105 
REMARK       I    between atoms: C2'_1115  and  O2'_1116 
REMARK       I    between atoms: C3'_1118  and  O3'_1119 
REMARK       I    between atoms: O3'_1119  and  P_1120 
REMARK       I    between atoms: P_1120  and  O5'_1123 
REMARK       I    between atoms: O5'_1123  and  C5'_1124 
REMARK       I    between atoms: C5'_1124  and  C4'_1125 
REMARK       I    between atoms: C1'_1127  and  N9_1128 
REMARK       I    between atoms: C2_1131  and  N2_1132 
REMARK       I    between atoms: C2'_1142  and  O2'_1143 
REMARK       I    between atoms: C3'_1145  and  O3'_1146 
REMARK       I    between atoms: O3'_1146  and  P_1147 
REMARK       I    between atoms: P_1147  and  O5'_1150 
REMARK       I    between atoms: O5'_1150  and  C5'_1151 
REMARK       I    between atoms: C5'_1151  and  C4'_1152 
REMARK       I    between atoms: C1'_1154  and  N1_1155 
REMARK       I    between atoms: C2'_1164  and  O2'_1165 
REMARK       I    between atoms: C3'_1167  and  O3'_1168 
REMARK       I    between atoms: O3'_1168  and  P_1169 
REMARK       I    between atoms: P_1169  and  O5'_1172 
REMARK       I    between atoms: O5'_1172  and  C5'_1173 
REMARK       I    between atoms: C5'_1173  and  C4'_1174 
REMARK       I    between atoms: C1'_1176  and  N1_1177 
REMARK       I    between atoms: C4_1182  and  N4_1183 
REMARK       I    between atoms: C2'_1187  and  O2'_1188 
REMARK       I    between atoms: C3'_1190  and  O3'_1191 
REMARK       I    between atoms: O3'_1191  and  P_1192 
REMARK       I    between atoms: P_1192  and  O5'_1195 
REMARK       I    between atoms: O5'_1195  and  C5'_1196 
REMARK       I    between atoms: C5'_1196  and  C4'_1197 
REMARK       I    between atoms: C1'_1199  and  N9_1200 
REMARK       I    between atoms: C6_1205  and  N6_1206 
REMARK       I    between atoms: C2'_1212  and  O2'_1213 
REMARK       I    between atoms: C3'_1215  and  O3'_1216 
REMARK       I    between atoms: O3'_1216  and  P_1217 
REMARK       I    between atoms: P_1217  and  O5'_1220 
REMARK       I    between atoms: O5'_1220  and  C5'_1221 
REMARK       I    between atoms: C5'_1221  and  C4'_1222 
REMARK       I    between atoms: C1'_1224  and  N9_1225 
REMARK       I    between atoms: C2_1228  and  N2_1229 
REMARK       I    between atoms: C2'_1239  and  O2'_1240 
REMARK       I    between atoms: C3'_1242  and  O3'_1243 
REMARK       I    between atoms: O3'_1243  and  P_1244 
REMARK       I    between atoms: P_1244  and  O5'_1247 
REMARK       I    between atoms: O5'_1247  and  C5'_1248 
REMARK       I    between atoms: C5'_1248  and  C4'_1249 
REMARK       I    between atoms: C1'_1251  and  N1_1252 
REMARK       I    between atoms: C4_1257  and  N4_1258 
REMARK       I    between atoms: C2'_1262  and  O2'_1263 
REMARK       I    between atoms: C3'_1265  and  O3'_1266 
REMARK       I    between atoms: O3'_1266  and  P_1267 
REMARK       I    between atoms: P_1267  and  O5'_1270 
REMARK       I    between atoms: O5'_1270  and  C5'_1271 
REMARK       I    between atoms: C5'_1271  and  C4'_1272 
REMARK       I    between atoms: C1'_1274  and  N1_1275 
REMARK       I    between atoms: C4_1280  and  N4_1281 
REMARK       I    between atoms: C2'_1285  and  O2'_1286 
REMARK       I    between atoms: C3'_1288  and  O3'_1289 
REMARK       I    between atoms: O3'_1289  and  P_1290 
REMARK       I    between atoms: P_1290  and  O5'_1293 
REMARK       I    between atoms: O5'_1293  and  C5'_1294 
REMARK       I    between atoms: C5'_1294  and  C4'_1295 
REMARK       I    between atoms: C1'_1297  and  N1_1298 
REMARK       I    between atoms: C4_1303  and  N4_1304 
REMARK       I    between atoms: C2'_1308  and  O2'_1309 
REMARK       I    between atoms: C3'_1311  and  O3'_1312 
REMARK       I    between atoms: O3'_1312  and  P_1313 
REMARK       I    between atoms: P_1313  and  O5'_1316 
REMARK       I    between atoms: O5'_1316  and  C5'_1317 
REMARK       I    between atoms: C5'_1317  and  C4'_1318 
REMARK       I    between atoms: C1'_1320  and  N1_1321 
REMARK       I    between atoms: C4_1326  and  N4_1327 
REMARK       I    between atoms: C2'_1331  and  O2'_1332 
REMARK       I    between atoms: C3'_1334  and  O3'_1335 
REMARK       I    between atoms: O3'_1335  and  P_1336 
REMARK       I    between atoms: P_1336  and  O5'_1339 
REMARK       I    between atoms: O5'_1339  and  C5'_1340 
REMARK       I    between atoms: C5'_1340  and  C4'_1341 
REMARK       I    between atoms: C1'_1343  and  N1_1344 
REMARK       I    between atoms: C4_1349  and  N4_1350 
REMARK       I    between atoms: C2'_1354  and  O2'_1355 
REMARK       I    between atoms: C3'_1357  and  O3'_1358 
ROOT
ATOM      1 5'HO  DG A   1     106.440  99.862 214.927  1.00  0.00     0.209 HD
ATOM      2  O5'  DG A   1     106.447 100.791 214.679  1.00  0.00    -0.398 OA
ATOM      3  C5'  DG A   1     107.040 100.872 213.379  1.00  0.00     0.198 C 
ATOM      4  C4'  DG A   1     107.175  99.499 212.763  1.00  0.00     0.180 C 
ATOM      5  O4'  DG A   1     108.173  98.749 213.510  1.00  0.00    -0.353 OA
ATOM      6  C1'  DG A   1     107.716  97.427 213.729  1.00  0.00     0.262 C 
ATOM      7  N9   DG A   1     107.458  97.261 215.157  1.00  0.00    -0.293 N 
ATOM      8  C4   DG A   1     107.011  96.120 215.780  1.00  0.00     0.187 A 
ATOM      9  N3   DG A   1     106.730  94.946 215.177  1.00  0.00    -0.044 NA
ATOM     10  C2   DG A   1     106.322  94.034 216.042  1.00  0.00     0.703 A 
ATOM     11  N2   DG A   1     106.003  92.810 215.614  1.00  0.00    -0.233 N 
ATOM     12  H21  DG A   1     106.077  92.596 214.631  1.00  0.00     0.174 HD
ATOM     13  H22  DG A   1     105.692  92.106 216.270  1.00  0.00     0.174 HD
ATOM     14  N1   DG A   1     106.199  94.254 217.389  1.00  0.00    -0.153 N 
ATOM     15  H1   DG A   1     105.878  93.489 217.961  1.00  0.00     0.187 HD
ATOM     16  C6   DG A   1     106.481  95.454 218.033  1.00  0.00     0.292 A 
ATOM     17  O6   DG A   1     106.334  95.543 219.259  1.00  0.00    -0.265 OA
ATOM     18  C5   DG A   1     106.920  96.445 217.118  1.00  0.00     0.173 A 
ATOM     19  N7   DG A   1     107.302  97.763 217.332  1.00  0.00    -0.234 NA
ATOM     20  C8   DG A   1     107.611  98.204 216.143  1.00  0.00     0.214 A 
ATOM     21  C2'  DG A   1     106.483  97.224 212.851  1.00  0.00     0.199 C 
ATOM     22  O2'  DG A   1     106.903  96.804 211.565  1.00  0.00    -0.388 OA
ATOM     23 2'HO  DG A   1     106.190  97.012 210.961  1.00  0.00     0.210 HD
ATOM     24  C3'  DG A   1     105.918  98.638 212.811  1.00  0.00     0.198 C 
ATOM     25  O3'  DG A   1     105.090  98.862 211.672  1.00  0.00    -0.279 OA
ATOM     26  P    DG A   2     103.491  98.754 211.812  1.00  0.00     0.408 P 
ATOM     27  OP1  DG A   2     102.912  99.120 210.494  1.00  0.00    -0.624 OA
ATOM     28  OP2  DG A   2     103.075  99.498 213.028  1.00  0.00    -0.624 OA
ATOM     29  O5'  DG A   2     103.230  97.202 212.059  1.00  0.00    -0.287 OA
ATOM     30  C5'  DG A   2     103.507  96.238 211.044  1.00  0.00     0.216 C 
ATOM     31  C4'  DG A   2     102.939  94.892 211.432  1.00  0.00     0.180 C 
ATOM     32  O4'  DG A   2     103.783  94.296 212.454  1.00  0.00    -0.353 OA
ATOM     33  C1'  DG A   2     102.979  93.585 213.380  1.00  0.00     0.262 C 
ATOM     34  N9   DG A   2     103.136  94.197 214.695  1.00  0.00    -0.293 N 
ATOM     35  C4   DG A   2     102.836  93.621 215.906  1.00  0.00     0.187 A 
ATOM     36  N3   DG A   2     102.344  92.378 216.093  1.00  0.00    -0.044 NA
ATOM     37  C2   DG A   2     102.155  92.109 217.371  1.00  0.00     0.703 A 
ATOM     38  N2   DG A   2     101.669  90.920 217.734  1.00  0.00    -0.233 N 
ATOM     39  H21  DG A   2     101.452  90.237 217.023  1.00  0.00     0.174 HD
ATOM     40  H22  DG A   2     101.518  90.705 218.710  1.00  0.00     0.174 HD
ATOM     41  N1   DG A   2     102.427  92.987 218.390  1.00  0.00    -0.153 N 
ATOM     42  H1   DG A   2     102.243  92.681 219.332  1.00  0.00     0.187 HD
ATOM     43  C6   DG A   2     102.936  94.269 218.224  1.00  0.00     0.292 A 
ATOM     44  O6   DG A   2     103.148  94.978 219.215  1.00  0.00    -0.265 OA
ATOM     45  C5   DG A   2     103.143  94.576 216.853  1.00  0.00     0.173 A 
ATOM     46  N7   DG A   2     103.628  95.729 216.251  1.00  0.00    -0.234 NA
ATOM     47  C8   DG A   2     103.605  95.458 214.974  1.00  0.00     0.214 A 
ATOM     48  C2'  DG A   2     101.542  93.621 212.861  1.00  0.00     0.199 C 
ATOM     49  O2'  DG A   2     101.333  92.501 212.021  1.00  0.00    -0.388 OA
ATOM     50 2'HO  DG A   2     100.395  92.313 212.043  1.00  0.00     0.210 HD
ATOM     51  C3'  DG A   2     101.555  94.919 212.064  1.00  0.00     0.198 C 
ATOM     52  O3'  DG A   2     100.524  94.971 211.083  1.00  0.00    -0.279 OA
ATOM     53  P    DG A   3      99.076  95.547 211.477  1.00  0.00     0.408 P 
ATOM     54  OP1  DG A   3      98.216  95.446 210.270  1.00  0.00    -0.624 OA
ATOM     55  OP2  DG A   3      99.259  96.865 212.136  1.00  0.00    -0.624 OA
ATOM     56  O5'  DG A   3      98.531  94.516 212.564  1.00  0.00    -0.287 OA
ATOM     57  C5'  DG A   3      97.892  93.304 212.170  1.00  0.00     0.216 C 
ATOM     58  C4'  DG A   3      97.772  92.363 213.349  1.00  0.00     0.180 C 
ATOM     59  O4'  DG A   3      98.944  92.486 214.194  1.00  0.00    -0.353 OA
ATOM     60  C1'  DG A   3      98.598  92.139 215.524  1.00  0.00     0.262 C 
ATOM     61  N9   DG A   3      99.067  93.194 216.419  1.00  0.00    -0.293 N 
ATOM     62  C4   DG A   3      98.991  93.188 217.790  1.00  0.00     0.187 A 
ATOM     63  N3   DG A   3      98.467  92.204 218.551  1.00  0.00    -0.044 NA
ATOM     64  C2   DG A   3      98.533  92.487 219.839  1.00  0.00     0.703 A 
ATOM     65  N2   DG A   3      98.053  91.622 220.735  1.00  0.00    -0.233 N 
ATOM     66  H21  DG A   3      97.642  90.758 220.414  1.00  0.00     0.174 HD
ATOM     67  H22  DG A   3      98.093  91.832 221.723  1.00  0.00     0.174 HD
ATOM     68  N1   DG A   3      99.076  93.641 220.345  1.00  0.00    -0.153 N 
ATOM     69  H1   DG A   3      99.077  93.756 221.346  1.00  0.00     0.187 HD
ATOM     70  C6   DG A   3      99.625  94.667 219.583  1.00  0.00     0.292 A 
ATOM     71  O6   DG A   3     100.092  95.664 220.144  1.00  0.00    -0.265 OA
ATOM     72  C5   DG A   3      99.556  94.379 218.194  1.00  0.00     0.173 A 
ATOM     73  N7   DG A   3      99.978  95.121 217.098  1.00  0.00    -0.234 NA
ATOM     74  C8   DG A   3      99.666  94.380 216.070  1.00  0.00     0.214 A 
ATOM     75  C2'  DG A   3      97.082  91.927 215.577  1.00  0.00     0.199 C 
ATOM     76  O2'  DG A   3      96.822  90.537 215.504  1.00  0.00    -0.388 OA
ATOM     77 2'HO  DG A   3      96.084  90.427 214.904  1.00  0.00     0.210 HD
ATOM     78  C3'  DG A   3      96.625  92.639 214.307  1.00  0.00     0.198 C 
ATOM     79  O3'  DG A   3      95.389  92.126 213.813  1.00  0.00    -0.279 OA
ATOM     80  P    DG A   4      94.000  92.765 214.315  1.00  0.00     0.408 P 
ATOM     81  OP1  DG A   4      92.906  91.917 213.773  1.00  0.00    -0.624 OA
ATOM     82  OP2  DG A   4      94.017  94.219 214.015  1.00  0.00    -0.624 OA
ATOM     83  O5'  DG A   4      94.034  92.578 215.899  1.00  0.00    -0.287 OA
ATOM     84  C5'  DG A   4      93.968  91.280 216.487  1.00  0.00     0.216 C 
ATOM     85  C4'  DG A   4      93.701  91.390 217.972  1.00  0.00     0.180 C 
ATOM     86  O4'  DG A   4      94.936  91.720 218.657  1.00  0.00    -0.353 OA
ATOM     87  C1'  DG A   4      94.640  92.464 219.826  1.00  0.00     0.262 C 
ATOM     88  N9   DG A   4      95.415  93.700 219.798  1.00  0.00    -0.293 N 
ATOM     89  C4   DG A   4      95.801  94.443 220.887  1.00  0.00     0.187 A 
ATOM     90  N3   DG A   4      95.531  94.155 222.176  1.00  0.00    -0.044 NA
ATOM     91  C2   DG A   4      96.033  95.057 222.999  1.00  0.00     0.703 A 
ATOM     92  N2   DG A   4      95.864  94.918 224.315  1.00  0.00    -0.233 N 
ATOM     93  H21  DG A   4      95.353  94.120 224.664  1.00  0.00     0.174 HD
ATOM     94  H22  DG A   4      96.242  95.600 224.957  1.00  0.00     0.174 HD
ATOM     95  N1   DG A   4      96.739  96.160 222.591  1.00  0.00    -0.153 N 
ATOM     96  H1   DG A   4      97.075  96.795 223.297  1.00  0.00     0.187 HD
ATOM     97  C6   DG A   4      97.031  96.478 221.269  1.00  0.00     0.292 A 
ATOM     98  O6   DG A   4      97.680  97.497 221.013  1.00  0.00    -0.265 OA
ATOM     99  C5   DG A   4      96.500  95.514 220.371  1.00  0.00     0.173 A 
ATOM    100  N7   DG A   4      96.556  95.445 218.985  1.00  0.00    -0.234 NA
ATOM    101  C8   DG A   4      95.902  94.354 218.692  1.00  0.00     0.214 A 
ATOM    102  C2'  DG A   4      93.128  92.696 219.865  1.00  0.00     0.199 C 
ATOM    103  O2'  DG A   4      92.542  91.701 220.684  1.00  0.00    -0.388 OA
ATOM    104 2'HO  DG A   4      91.627  91.950 220.817  1.00  0.00     0.210 HD
ATOM    105  C3'  DG A   4      92.753  92.500 218.400  1.00  0.00     0.198 C 
ATOM    106  O3'  DG A   4      91.387  92.123 218.230  1.00  0.00    -0.279 OA
ATOM    107  P    DG A   5      90.288  93.239 217.856  1.00  0.00     0.408 P 
ATOM    108  OP1  DG A   5      89.184  92.543 217.148  1.00  0.00    -0.624 OA
ATOM    109  OP2  DG A   5      90.969  94.385 217.202  1.00  0.00    -0.624 OA
ATOM    110  O5'  DG A   5      89.737  93.732 219.270  1.00  0.00    -0.287 OA
ATOM    111  C5'  DG A   5      88.693  93.027 219.942  1.00  0.00     0.216 C 
ATOM    112  C4'  DG A   5      88.904  93.081 221.440  1.00  0.00     0.180 C 
ATOM    113  O4'  DG A   5      90.329  93.119 221.718  1.00  0.00    -0.353 OA
ATOM    114  C1'  DG A   5      90.571  93.925 222.858  1.00  0.00     0.262 C 
ATOM    115  N9   DG A   5      91.450  95.024 222.471  1.00  0.00    -0.293 N 
ATOM    116  C4   DG A   5      92.317  95.704 223.293  1.00  0.00     0.187 A 
ATOM    117  N3   DG A   5      92.511  95.472 224.609  1.00  0.00    -0.044 NA
ATOM    118  C2   DG A   5      93.409  96.288 225.126  1.00  0.00     0.703 A 
ATOM    119  N2   DG A   5      93.724  96.195 226.421  1.00  0.00    -0.233 N 
ATOM    120  H21  DG A   5      93.269  95.499 226.992  1.00  0.00     0.174 HD
ATOM    121  H22  DG A   5      94.416  96.809 226.827  1.00  0.00     0.174 HD
ATOM    122  N1   DG A   5      94.068  97.256 224.414  1.00  0.00    -0.153 N 
ATOM    123  H1   DG A   5      94.739  97.823 224.910  1.00  0.00     0.187 HD
ATOM    124  C6   DG A   5      93.885  97.517 223.062  1.00  0.00     0.292 A 
ATOM    125  O6   DG A   5      94.531  98.419 222.518  1.00  0.00    -0.265 OA
ATOM    126  C5   DG A   5      92.921  96.646 222.488  1.00  0.00     0.173 A 
ATOM    127  N7   DG A   5      92.445  96.562 221.186  1.00  0.00    -0.234 NA
ATOM    128  C8   DG A   5      91.577  95.588 221.225  1.00  0.00     0.214 A 
ATOM    129  C2'  DG A   5      89.217  94.392 223.395  1.00  0.00     0.199 C 
ATOM    130  O2'  DG A   5      88.775  93.471 224.374  1.00  0.00    -0.388 OA
ATOM    131 2'HO  DG A   5      87.854  93.293 224.186  1.00  0.00     0.210 HD
ATOM    132  C3'  DG A   5      88.356  94.317 222.140  1.00  0.00     0.198 C 
ATOM    133  O3'  DG A   5      86.971  94.182 222.446  1.00  0.00    -0.279 OA
ATOM    134  P    DT A   6      86.052  95.496 222.593  1.00  0.00     0.408 P 
ATOM    135  OP1  DT A   6      84.788  95.082 223.252  1.00  0.00    -0.624 OA
ATOM    136  OP2  DT A   6      86.003  96.175 221.274  1.00  0.00    -0.624 OA
ATOM    137  O5'  DT A   6      86.863  96.427 223.602  1.00  0.00    -0.287 OA
ATOM    138  C5'  DT A   6      86.936  96.117 224.993  1.00  0.00     0.216 C 
ATOM    139  C4'  DT A   6      87.450  97.308 225.768  1.00  0.00     0.180 C 
ATOM    140  O4'  DT A   6      88.881  97.442 225.558  1.00  0.00    -0.353 OA
ATOM    141  C1'  DT A   6      89.239  98.814 225.602  1.00  0.00     0.264 C 
ATOM    142  N1   DT A   6      89.897  99.166 224.335  1.00  0.00    -0.280 N 
ATOM    143  C6   DT A   6      89.716  98.413 223.196  1.00  0.00     0.104 A 
ATOM    144  C2   DT A   6      90.705 100.288 224.325  1.00  0.00     0.331 A 
ATOM    145  O2   DT A   6      90.894 100.978 225.309  1.00  0.00    -0.246 OA
ATOM    146  N3   DT A   6      91.288 100.573 223.117  1.00  0.00    -0.275 N 
ATOM    147  H3   DT A   6      91.864 101.400 223.080  1.00  0.00     0.173 HD
ATOM    148  C4   DT A   6      91.153  99.866 221.946  1.00  0.00     0.250 A 
ATOM    149  O4   DT A   6      91.752 100.246 220.940  1.00  0.00    -0.268 OA
ATOM    150  C5   DT A   6      90.303  98.720 222.035  1.00  0.00     0.092 A 
ATOM    151  C2'  DT A   6      87.965  99.616 225.870  1.00  0.00     0.199 C 
ATOM    152  O2'  DT A   6      87.840  99.810 227.267  1.00  0.00    -0.388 OA
ATOM    153 2'HO  DT A   6      87.316 100.603 227.391  1.00  0.00     0.210 HD
ATOM    154  C3'  DT A   6      86.901  98.661 225.343  1.00  0.00     0.198 C 
ATOM    155  O3'  DT A   6      85.613  98.910 225.900  1.00  0.00    -0.279 OA
ATOM    156  P    DG A   7      84.597  99.902 225.146  1.00  0.00     0.408 P 
ATOM    157  OP1  DG A   7      83.290  99.811 225.848  1.00  0.00    -0.624 OA
ATOM    158  OP2  DG A   7      84.666  99.631 223.688  1.00  0.00    -0.624 OA
ATOM    159  O5'  DG A   7      85.202 101.352 225.411  1.00  0.00    -0.287 OA
ATOM    160  C5'  DG A   7      85.140 101.947 226.706  1.00  0.00     0.216 C 
ATOM    161  C4'  DG A   7      85.959 103.220 226.739  1.00  0.00     0.180 C 
ATOM    162  O4'  DG A   7      87.318 102.938 226.322  1.00  0.00    -0.353 OA
ATOM    163  C1'  DG A   7      87.884 104.108 225.756  1.00  0.00     0.262 C 
ATOM    164  N9   DG A   7      88.454 103.767 224.457  1.00  0.00    -0.293 N 
ATOM    165  C4   DG A   7      89.392 104.493 223.762  1.00  0.00     0.187 A 
ATOM    166  N3   DG A   7      89.953 105.653 224.163  1.00  0.00    -0.044 NA
ATOM    167  C2   DG A   7      90.822 106.112 223.280  1.00  0.00     0.703 A 
ATOM    168  N2   DG A   7      91.473 107.252 223.521  1.00  0.00    -0.233 N 
ATOM    169  H21  DG A   7      91.294 107.754 224.378  1.00  0.00     0.174 HD
ATOM    170  H22  DG A   7      92.132 107.618 222.847  1.00  0.00     0.174 HD
ATOM    171  N1   DG A   7      91.117 105.486 222.096  1.00  0.00    -0.153 N 
ATOM    172  H1   DG A   7      91.797 105.925 221.494  1.00  0.00     0.187 HD
ATOM    173  C6   DG A   7      90.552 104.293 221.661  1.00  0.00     0.292 A 
ATOM    174  O6   DG A   7      90.888 103.817 220.571  1.00  0.00    -0.265 OA
ATOM    175  C5   DG A   7      89.617 103.786 222.601  1.00  0.00     0.173 A 
ATOM    176  N7   DG A   7      88.835 102.637 222.563  1.00  0.00    -0.234 NA
ATOM    177  C8   DG A   7      88.164 102.671 223.683  1.00  0.00     0.214 A 
ATOM    178  C2'  DG A   7      86.784 105.170 225.676  1.00  0.00     0.199 C 
ATOM    179  O2'  DG A   7      86.907 106.034 226.791  1.00  0.00    -0.388 OA
ATOM    180 2'HO  DG A   7      86.406 106.823 226.584  1.00  0.00     0.210 HD
ATOM    181  C3'  DG A   7      85.525 104.315 225.780  1.00  0.00     0.198 C 
ATOM    182  O3'  DG A   7      84.409 105.048 226.278  1.00  0.00    -0.279 OA
ATOM    183  P    DT A   8      83.488 105.891 225.263  1.00  0.00     0.408 P 
ATOM    184  OP1  DT A   8      82.529 106.675 226.082  1.00  0.00    -0.624 OA
ATOM    185  OP2  DT A   8      82.977 104.965 224.219  1.00  0.00    -0.624 OA
ATOM    186  O5'  DT A   8      84.504 106.905 224.570  1.00  0.00    -0.287 OA
ATOM    187  C5'  DT A   8      84.598 108.265 224.996  1.00  0.00     0.216 C 
ATOM    188  C4'  DT A   8      85.978 108.813 224.708  1.00  0.00     0.180 C 
ATOM    189  O4'  DT A   8      86.873 107.720 224.372  1.00  0.00    -0.353 OA
ATOM    190  C1'  DT A   8      87.828 108.160 223.422  1.00  0.00     0.264 C 
ATOM    191  N1   DT A   8      87.744 107.288 222.240  1.00  0.00    -0.280 N 
ATOM    192  C6   DT A   8      86.715 106.385 222.088  1.00  0.00     0.104 A 
ATOM    193  C2   DT A   8      88.736 107.403 221.284  1.00  0.00     0.331 A 
ATOM    194  O2   DT A   8      89.661 108.188 221.379  1.00  0.00    -0.246 OA
ATOM    195  N3   DT A   8      88.607 106.562 220.210  1.00  0.00    -0.275 N 
ATOM    196  H3   DT A   8      89.318 106.632 219.499  1.00  0.00     0.173 HD
ATOM    197  C4   DT A   8      87.611 105.638 219.996  1.00  0.00     0.250 A 
ATOM    198  O4   DT A   8      87.636 104.951 218.974  1.00  0.00    -0.268 OA
ATOM    199  C5   DT A   8      86.622 105.579 221.026  1.00  0.00     0.092 A 
ATOM    200  C2'  DT A   8      87.547 109.633 223.120  1.00  0.00     0.199 C 
ATOM    201  O2'  DT A   8      88.363 110.428 223.960  1.00  0.00    -0.388 OA
ATOM    202 2'HO  DT A   8      87.773 110.915 224.536  1.00  0.00     0.210 HD
ATOM    203  C3'  DT A   8      86.076 109.748 223.511  1.00  0.00     0.198 C 
ATOM    204  O3'  DT A   8      85.702 111.079 223.862  1.00  0.00    -0.279 OA
ATOM    205  P    DA A   9      85.548 112.200 222.716  1.00  0.00     0.408 P 
ATOM    206  OP1  DA A   9      86.516 111.878 221.637  1.00  0.00    -0.624 OA
ATOM    207  OP2  DA A   9      85.607 113.528 223.378  1.00  0.00    -0.624 OA
ATOM    208  O5'  DA A   9      84.067 111.992 222.165  1.00  0.00    -0.287 OA
ATOM    209  C5'  DA A   9      83.793 111.098 221.085  1.00  0.00     0.216 C 
ATOM    210  C4'  DA A   9      84.020 111.791 219.761  1.00  0.00     0.180 C 
ATOM    211  O4'  DA A   9      85.370 111.487 219.316  1.00  0.00    -0.353 OA
ATOM    212  C1'  DA A   9      85.356 111.111 217.955  1.00  0.00     0.262 C 
ATOM    213  N9   DA A   9      85.665 109.682 217.872  1.00  0.00    -0.294 N 
ATOM    214  C4   DA A   9      84.768 108.651 217.714  1.00  0.00     0.167 A 
ATOM    215  N3   DA A   9      83.432 108.742 217.606  1.00  0.00    -0.222 NA
ATOM    216  C2   DA A   9      82.889 107.536 217.465  1.00  0.00     0.237 A 
ATOM    217  N1   DA A   9      83.485 106.339 217.418  1.00  0.00    -0.222 NA
ATOM    218  C6   DA A   9      84.830 106.283 217.527  1.00  0.00     0.155 A 
ATOM    219  N6   DA A   9      85.421 105.090 217.478  1.00  0.00    -0.382 N 
ATOM    220  H61  DA A   9      86.426 105.019 217.556  1.00  0.00     0.157 HD
ATOM    221  H62  DA A   9      84.858 104.263 217.354  1.00  0.00     0.157 HD
ATOM    222  C5   DA A   9      85.524 107.495 217.686  1.00  0.00     0.149 A 
ATOM    223  N7   DA A   9      86.875 107.787 217.826  1.00  0.00    -0.236 NA
ATOM    224  C8   DA A   9      86.903 109.093 217.935  1.00  0.00     0.214 A 
ATOM    225  C2'  DA A   9      83.989 111.496 217.393  1.00  0.00     0.199 C 
ATOM    226  O2'  DA A   9      84.046 112.843 216.962  1.00  0.00    -0.388 OA
ATOM    227 2'HO  DA A   9      83.153 113.108 216.741  1.00  0.00     0.210 HD
ATOM    228  C3'  DA A   9      83.106 111.341 218.626  1.00  0.00     0.198 C 
ATOM    229  O3'  DA A   9      81.929 112.144 218.550  1.00  0.00    -0.279 OA
ATOM    230  P    DG A  10      80.603 111.561 217.844  1.00  0.00     0.408 P 
ATOM    231  OP1  DG A  10      80.898 110.188 217.357  1.00  0.00    -0.624 OA
ATOM    232  OP2  DG A  10      79.457 111.782 218.762  1.00  0.00    -0.624 OA
ATOM    233  O5'  DG A  10      80.401 112.494 216.567  1.00  0.00    -0.287 OA
ATOM    234  C5'  DG A  10      80.213 113.903 216.703  1.00  0.00     0.216 C 
ATOM    235  C4'  DG A  10      81.120 114.647 215.747  1.00  0.00     0.180 C 
ATOM    236  O4'  DG A  10      82.145 113.740 215.258  1.00  0.00    -0.353 OA
ATOM    237  C1'  DG A  10      82.411 114.009 213.892  1.00  0.00     0.262 C 
ATOM    238  N9   DG A  10      82.065 112.823 213.113  1.00  0.00    -0.293 N 
ATOM    239  C4   DG A  10      82.244 112.657 211.761  1.00  0.00     0.187 A 
ATOM    240  N3   DG A  10      82.770 113.565 210.913  1.00  0.00    -0.044 NA
ATOM    241  C2   DG A  10      82.813 113.114 209.672  1.00  0.00     0.703 A 
ATOM    242  N2   DG A  10      83.305 113.889 208.702  1.00  0.00    -0.233 N 
ATOM    243  H21  DG A  10      83.639 114.814 208.930  1.00  0.00     0.174 HD
ATOM    244  H22  DG A  10      83.349 113.553 207.749  1.00  0.00     0.174 HD
ATOM    245  N1   DG A  10      82.376 111.873 209.290  1.00  0.00    -0.153 N 
ATOM    246  H1   DG A  10      82.456 111.625 208.316  1.00  0.00     0.187 HD
ATOM    247  C6   DG A  10      81.829 110.920 210.143  1.00  0.00     0.292 A 
ATOM    248  O6   DG A  10      81.462 109.830 209.690  1.00  0.00    -0.265 OA
ATOM    249  C5   DG A  10      81.776 111.390 211.483  1.00  0.00     0.173 A 
ATOM    250  N7   DG A  10      81.310 110.772 212.637  1.00  0.00    -0.234 NA
ATOM    251  C8   DG A  10      81.502 111.659 213.575  1.00  0.00     0.214 A 
ATOM    252  C2'  DG A  10      81.610 115.252 213.503  1.00  0.00     0.199 C 
ATOM    253  O2'  DG A  10      82.407 116.398 213.741  1.00  0.00    -0.388 OA
ATOM    254 2'HO  DG A  10      81.935 116.938 214.375  1.00  0.00     0.210 HD
ATOM    255  C3'  DG A  10      80.448 115.176 214.486  1.00  0.00     0.198 C 
ATOM    256  O3'  DG A  10      79.843 116.448 214.709  1.00  0.00    -0.279 OA
ATOM    257  P    DC A  11      78.419 116.787 214.041  1.00  0.00     0.408 P 
ATOM    258  OP1  DC A  11      77.940 118.054 214.647  1.00  0.00    -0.624 OA
ATOM    259  OP2  DC A  11      77.566 115.572 214.110  1.00  0.00    -0.624 OA
ATOM    260  O5'  DC A  11      78.763 117.064 212.509  1.00  0.00    -0.287 OA
ATOM    261  C5'  DC A  11      79.514 118.215 212.120  1.00  0.00     0.216 C 
ATOM    262  C4'  DC A  11      79.589 118.303 210.613  1.00  0.00     0.180 C 
ATOM    263  O4'  DC A  11      80.520 117.293 210.134  1.00  0.00    -0.353 OA
ATOM    264  C1'  DC A  11      79.984 116.650 208.993  1.00  0.00     0.264 C 
ATOM    265  N1   DC A  11      79.660 115.258 209.349  1.00  0.00    -0.278 N 
ATOM    266  C6   DC A  11      79.493 114.891 210.656  1.00  0.00     0.102 A 
ATOM    267  C2   DC A  11      79.528 114.313 208.330  1.00  0.00     0.352 A 
ATOM    268  O2   DC A  11      79.677 114.672 207.153  1.00  0.00    -0.244 OA
ATOM    269  N3   DC A  11      79.239 113.032 208.650  1.00  0.00    -0.177 NA
ATOM    270  C4   DC A  11      79.084 112.683 209.927  1.00  0.00     0.128 A 
ATOM    271  N4   DC A  11      78.804 111.408 210.194  1.00  0.00    -0.384 N 
ATOM    272  H41  DC A  11      78.678 111.102 211.148  1.00  0.00     0.157 HD
ATOM    273  H42  DC A  11      78.722 110.746 209.436  1.00  0.00     0.157 HD
ATOM    274  C5   DC A  11      79.209 113.626 210.988  1.00  0.00     0.067 A 
ATOM    275  C2'  DC A  11      78.776 117.466 208.541  1.00  0.00     0.199 C 
ATOM    276  O2'  DC A  11      79.224 118.500 207.684  1.00  0.00    -0.388 OA
ATOM    277 2'HO  DC A  11      78.884 119.322 208.040  1.00  0.00     0.210 HD
ATOM    278  C3'  DC A  11      78.286 118.023 209.871  1.00  0.00     0.198 C 
ATOM    279  O3'  DC A  11      77.507 119.203 209.708  1.00  0.00    -0.279 OA
ATOM    280  P    DT A  12      75.927 119.086 209.426  1.00  0.00     0.408 P 
ATOM    281  OP1  DT A  12      75.388 120.466 209.333  1.00  0.00    -0.624 OA
ATOM    282  OP2  DT A  12      75.345 118.135 210.408  1.00  0.00    -0.624 OA
ATOM    283  O5'  DT A  12      75.838 118.417 207.981  1.00  0.00    -0.287 OA
ATOM    284  C5'  DT A  12      76.304 119.106 206.821  1.00  0.00     0.216 C 
ATOM    285  C4'  DT A  12      75.833 118.401 205.571  1.00  0.00     0.180 C 
ATOM    286  O4'  DT A  12      76.675 117.239 205.340  1.00  0.00    -0.353 OA
ATOM    287  C1'  DT A  12      75.886 116.156 204.878  1.00  0.00     0.264 C 
ATOM    288  N1   DT A  12      75.941 115.082 205.880  1.00  0.00    -0.280 N 
ATOM    289  C6   DT A  12      76.036 115.365 207.223  1.00  0.00     0.104 A 
ATOM    290  C2   DT A  12      75.896 113.775 205.428  1.00  0.00     0.331 A 
ATOM    291  O2   DT A  12      75.814 113.483 204.250  1.00  0.00    -0.246 OA
ATOM    292  N3   DT A  12      75.950 112.822 206.412  1.00  0.00    -0.275 N 
ATOM    293  H3   DT A  12      75.911 111.861 206.102  1.00  0.00     0.173 HD
ATOM    294  C4   DT A  12      76.045 113.034 207.768  1.00  0.00     0.250 A 
ATOM    295  O4   DT A  12      76.083 112.068 208.530  1.00  0.00    -0.268 OA
ATOM    296  C5   DT A  12      76.090 114.409 208.153  1.00  0.00     0.092 A 
ATOM    297  C2'  DT A  12      74.476 116.693 204.629  1.00  0.00     0.199 C 
ATOM    298  O2'  DT A  12      74.399 117.164 203.297  1.00  0.00    -0.388 OA
ATOM    299 2'HO  DT A  12      73.709 117.827 203.276  1.00  0.00     0.210 HD
ATOM    300  C3'  DT A  12      74.417 117.842 205.628  1.00  0.00     0.198 C 
ATOM    301  O3'  DT A  12      73.449 118.825 205.272  1.00  0.00    -0.279 OA
ATOM    302  P    DC A  13      71.911 118.620 205.690  1.00  0.00     0.408 P 
ATOM    303  OP1  DC A  13      71.185 119.861 205.318  1.00  0.00    -0.624 OA
ATOM    304  OP2  DC A  13      71.869 118.140 207.097  1.00  0.00    -0.624 OA
ATOM    305  O5'  DC A  13      71.406 117.449 204.734  1.00  0.00    -0.287 OA
ATOM    306  C5'  DC A  13      70.865 116.240 205.265  1.00  0.00     0.216 C 
ATOM    307  C4'  DC A  13      71.246 115.071 204.388  1.00  0.00     0.180 C 
ATOM    308  O4'  DC A  13      72.538 114.562 204.822  1.00  0.00    -0.353 OA
ATOM    309  C1'  DC A  13      72.522 113.145 204.824  1.00  0.00     0.264 C 
ATOM    310  N1   DC A  13      72.641 112.681 206.217  1.00  0.00    -0.278 N 
ATOM    311  C6   DC A  13      72.673 113.571 207.252  1.00  0.00     0.102 A 
ATOM    312  C2   DC A  13      72.716 111.306 206.466  1.00  0.00     0.352 A 
ATOM    313  O2   DC A  13      72.690 110.517 205.510  1.00  0.00    -0.244 OA
ATOM    314  N3   DC A  13      72.816 110.871 207.741  1.00  0.00    -0.177 NA
ATOM    315  C4   DC A  13      72.845 111.749 208.744  1.00  0.00     0.128 A 
ATOM    316  C5   DC A  13      72.773 113.154 208.521  1.00  0.00     0.067 A 
ATOM    317  C2'  DC A  13      71.232 112.704 204.134  1.00  0.00     0.199 C 
ATOM    318  C3'  DC A  13      70.308 113.872 204.462  1.00  0.00     0.198 C 
ENDROOT
BRANCH 318 319
ATOM    319  O3'  DC A  13      69.234 113.989 203.534  1.00  0.00    -0.279 OA
BRANCH 319 320
ATOM    320  P    DA A  14      67.715 113.893 204.055  1.00  0.00     0.408 P 
ATOM    321  OP2  DA A  14      67.703 114.217 205.503  1.00  0.00    -0.624 OA
ATOM    322  OP1  DA A  14      66.876 114.685 203.119  1.00  0.00    -0.624 OA
BRANCH 320 323
ATOM    323  O5'  DA A  14      67.348 112.350 203.888  1.00  0.00    -0.287 OA
BRANCH 323 324
ATOM    324  C5'  DA A  14      67.184 111.501 205.023  1.00  0.00     0.216 C 
BRANCH 324 325
ATOM    325  C4'  DA A  14      67.528 110.075 204.662  1.00  0.00     0.180 C 
ATOM    326  C3'  DA A  14      66.381 109.080 204.792  1.00  0.00     0.198 C 
ATOM    327  C2'  DA A  14      67.107 107.773 205.078  1.00  0.00     0.199 C 
ATOM    328  C1'  DA A  14      68.248 108.260 205.970  1.00  0.00     0.262 C 
ATOM    329  O4'  DA A  14      68.546 109.589 205.580  1.00  0.00    -0.353 OA
BRANCH 326 330
ATOM    330  O3'  DA A  14      65.601 109.016 203.601  1.00  0.00    -0.279 OA
BRANCH 330 331
ATOM    331  P    DG A  15      66.329 109.044 202.166  1.00  0.00     0.408 P 
ATOM    332  OP2  DG A  15      67.741 109.457 202.368  1.00  0.00    -0.624 OA
ATOM    333  OP1  DG A  15      66.033 107.751 201.497  1.00  0.00    -0.624 OA
BRANCH 331 334
ATOM    334  O5'  DG A  15      65.578 110.204 201.372  1.00  0.00    -0.287 OA
BRANCH 334 335
ATOM    335  C5'  DG A  15      64.319 109.969 200.741  1.00  0.00     0.216 C 
BRANCH 335 336
ATOM    336  C4'  DG A  15      64.522 109.589 199.291  1.00  0.00     0.180 C 
ATOM    337  C3'  DG A  15      64.269 110.696 198.276  1.00  0.00     0.198 C 
ATOM    338  C2'  DG A  15      63.953 109.896 197.016  1.00  0.00     0.199 C 
ATOM    339  C1'  DG A  15      63.093 108.782 197.607  1.00  0.00     0.262 C 
ATOM    340  O4'  DG A  15      63.558 108.559 198.930  1.00  0.00    -0.353 OA
BRANCH 337 341
ATOM    341  O3'  DG A  15      65.371 111.616 198.180  1.00  0.00    -0.279 OA
BRANCH 341 342
ATOM    342  P    DT A  16      65.391 112.778 197.061  1.00  0.00     0.408 P 
ATOM    343  OP2  DT A  16      63.976 113.087 196.733  1.00  0.00    -0.624 OA
ATOM    344  OP1  DT A  16      66.286 113.873 197.517  1.00  0.00    -0.624 OA
BRANCH 342 345
ATOM    345  O5'  DT A  16      66.046 112.080 195.786  1.00  0.00    -0.287 OA
BRANCH 345 346
ATOM    346  C5'  DT A  16      66.024 112.707 194.504  1.00  0.00     0.216 C 
BRANCH 346 347
ATOM    347  C4'  DT A  16      65.121 111.942 193.564  1.00  0.00     0.180 C 
ATOM    348  C3'  DT A  16      65.758 110.746 192.872  1.00  0.00     0.198 C 
ATOM    349  C2'  DT A  16      64.920 110.612 191.605  1.00  0.00     0.199 C 
ATOM    350  C1'  DT A  16      64.641 112.079 191.272  1.00  0.00     0.264 C 
ATOM    351  O4'  DT A  16      64.726 112.820 192.476  1.00  0.00    -0.353 OA
BRANCH 348 352
ATOM    352  O3'  DT A  16      65.699 109.571 193.680  1.00  0.00    -0.279 OA
BRANCH 352 353
ATOM    353  P    DT A  17      66.995 108.626 193.818  1.00  0.00     0.408 P 
ATOM    354  OP2  DT A  17      68.208 109.479 193.880  1.00  0.00    -0.624 OA
ATOM    355  OP1  DT A  17      66.717 107.667 194.917  1.00  0.00    -0.624 OA
BRANCH 353 356
ATOM    356  O5'  DT A  17      67.025 107.799 192.453  1.00  0.00    -0.287 OA
BRANCH 356 357
ATOM    357  C5'  DT A  17      65.833 107.252 191.885  1.00  0.00     0.216 C 
BRANCH 357 358
ATOM    358  C4'  DT A  17      66.143 105.974 191.138  1.00  0.00     0.180 C 
ATOM    359  C3'  DT A  17      65.636 104.695 191.797  1.00  0.00     0.198 C 
ATOM    360  C2'  DT A  17      66.821 104.259 192.653  1.00  0.00     0.199 C 
ATOM    361  C1'  DT A  17      67.990 104.662 191.760  1.00  0.00     0.264 C 
ATOM    362  O4'  DT A  17      67.589 105.821 191.056  1.00  0.00    -0.353 OA
BRANCH 359 363
ATOM    363  O3'  DT A  17      65.276 103.722 190.816  1.00  0.00    -0.279 OA
BRANCH 363 364
ATOM    364  P    DG A  18      63.819 103.041 190.857  1.00  0.00     0.408 P 
ATOM    365  OP2  DG A  18      62.802 104.123 190.829  1.00  0.00    -0.624 OA
ATOM    366  OP1  DG A  18      63.783 101.972 189.825  1.00  0.00    -0.624 OA
BRANCH 364 367
ATOM    367  O5'  DG A  18      63.765 102.340 192.288  1.00  0.00    -0.287 OA
BRANCH 367 368
ATOM    368  C5'  DG A  18      62.814 102.747 193.271  1.00  0.00     0.216 C 
BRANCH 368 369
ATOM    369  C4'  DG A  18      63.516 103.070 194.571  1.00  0.00     0.180 C 
ATOM    370  O4'  DG A  18      63.796 104.496 194.601  1.00  0.00    -0.353 OA
ATOM    371  C1'  DG A  18      62.976 105.126 195.567  1.00  0.00     0.262 C 
ATOM    372  C2'  DG A  18      61.940 104.102 196.028  1.00  0.00     0.199 C 
ATOM    373  C3'  DG A  18      62.706 102.799 195.834  1.00  0.00     0.198 C 
BRANCH 371 374
ATOM    374  N9   DG A  18      62.396 106.322 194.963  1.00  0.00    -0.293 N 
ATOM    375  C4   DG A  18      61.065 106.664 194.940  1.00  0.00     0.187 A 
ATOM    376  C5   DG A  18      61.008 107.864 194.264  1.00  0.00     0.173 A 
ATOM    377  N3   DG A  18      60.055 105.951 195.478  1.00  0.00    -0.044 NA
ATOM    378  C6   DG A  18      59.744 108.483 194.077  1.00  0.00     0.292 A 
ATOM    379  N7   DG A  18      62.276 108.269 193.869  1.00  0.00    -0.234 NA
ATOM    380  N1   DG A  18      58.719 107.730 194.639  1.00  0.00    -0.153 N 
ATOM    381  O6   DG A  18      59.481 109.547 193.505  1.00  0.00    -0.265 OA
ATOM    382  C2   DG A  18      58.885 106.538 195.295  1.00  0.00     0.703 A 
ATOM    383  H1   DG A  18      57.783 108.095 194.552  1.00  0.00     0.187 HD
ATOM    384  C8   DG A  18      63.064 107.325 194.305  1.00  0.00     0.214 A 
BRANCH 382 385
ATOM    385  N2   DG A  18      57.776 105.964 195.766  1.00  0.00    -0.233 N 
ATOM    386  H21  DG A  18      57.585 105.000 195.533  1.00  0.00     0.174 HD
ATOM    387  H22  DG A  18      57.137 106.485 196.347  1.00  0.00     0.174 HD
ENDBRANCH 382 385
ENDBRANCH 371 374
BRANCH 372 388
ATOM    388  O2'  DG A  18      61.653 104.330 197.394  1.00  0.00    -0.388 OA
ATOM    389 2'HO  DG A  18      60.929 104.958 197.425  1.00  0.00     0.210 HD
ENDBRANCH 372 388
BRANCH 373 390
ATOM    390  O3'  DG A  18      63.550 102.497 196.944  1.00  0.00    -0.279 OA
BRANCH 390 391
ATOM    391  P    DG A  19      63.138 101.325 197.966  1.00  0.00     0.408 P 
ATOM    392  OP1  DG A  19      63.861 100.099 197.542  1.00  0.00    -0.624 OA
ATOM    393  OP2  DG A  19      61.657 101.297 198.080  1.00  0.00    -0.624 OA
BRANCH 391 394
ATOM    394  O5'  DG A  19      63.753 101.792 199.362  1.00  0.00    -0.287 OA
BRANCH 394 395
ATOM    395  C5'  DG A  19      63.837 103.174 199.709  1.00  0.00     0.216 C 
BRANCH 395 396
ATOM    396  C4'  DG A  19      65.195 103.481 200.294  1.00  0.00     0.180 C 
ATOM    397  O4'  DG A  19      65.074 104.653 201.150  1.00  0.00    -0.353 OA
ATOM    398  C1'  DG A  19      65.458 104.322 202.470  1.00  0.00     0.262 C 
ATOM    399  C2'  DG A  19      65.370 102.803 202.581  1.00  0.00     0.199 C 
ATOM    400  C3'  DG A  19      65.785 102.382 201.175  1.00  0.00     0.198 C 
BRANCH 398 401
ATOM    401  N9   DG A  19      64.589 105.046 203.392  1.00  0.00    -0.293 N 
ATOM    402  C4   DG A  19      64.653 105.020 204.765  1.00  0.00     0.187 A 
ATOM    403  N3   DG A  19      65.534 104.312 205.504  1.00  0.00    -0.044 NA
ATOM    404  C5   DG A  19      63.644 105.855 205.196  1.00  0.00     0.173 A 
ATOM    405  C2   DG A  19      65.347 104.491 206.798  1.00  0.00     0.703 A 
ATOM    406  N1   DG A  19      64.375 105.299 207.330  1.00  0.00    -0.153 N 
ATOM    407  H1   DG A  19      64.316 105.369 208.333  1.00  0.00     0.187 HD
ATOM    408  C6   DG A  19      63.457 106.037 206.591  1.00  0.00     0.292 A 
ATOM    409  O6   DG A  19      62.618 106.734 207.173  1.00  0.00    -0.265 OA
ATOM    410  N7   DG A  19      62.957 106.396 204.116  1.00  0.00    -0.234 NA
ATOM    411  C8   DG A  19      63.552 105.888 203.072  1.00  0.00     0.214 A 
BRANCH 405 412
ATOM    412  N2   DG A  19      66.134 103.863 207.675  1.00  0.00    -0.233 N 
ATOM    413  H21  DG A  19      66.832 103.219 207.333  1.00  0.00     0.174 HD
ATOM    414  H22  DG A  19      66.033 104.027 208.666  1.00  0.00     0.174 HD
ENDBRANCH 405 412
ENDBRANCH 398 401
BRANCH 399 415
ATOM    415  O2'  DG A  19      66.310 102.362 203.542  1.00  0.00    -0.388 OA
ATOM    416 2'HO  DG A  19      66.394 103.068 204.184  1.00  0.00     0.210 HD
ENDBRANCH 399 415
BRANCH 400 417
ATOM    417  O3'  DG A  19      67.201 102.304 201.033  1.00  0.00    -0.279 OA
BRANCH 417 418
ATOM    418  P    DG A  20      67.859 101.079 200.223  1.00  0.00     0.408 P 
ATOM    419  OP2  DG A  20      68.471 100.143 201.200  1.00  0.00    -0.624 OA
ATOM    420  OP1  DG A  20      66.831 100.579 199.275  1.00  0.00    -0.624 OA
BRANCH 418 421
ATOM    421  O5'  DG A  20      69.028 101.756 199.378  1.00  0.00    -0.287 OA
BRANCH 421 422
ATOM    422  C5'  DG A  20      70.373 101.763 199.856  1.00  0.00     0.216 C 
BRANCH 422 423
ATOM    423  C4'  DG A  20      71.168 102.844 199.161  1.00  0.00     0.180 C 
ATOM    424  C3'  DG A  20      70.362 104.049 198.686  1.00  0.00     0.198 C 
ATOM    425  C2'  DG A  20      71.172 104.540 197.493  1.00  0.00     0.199 C 
ATOM    426  C1'  DG A  20      71.633 103.215 196.887  1.00  0.00     0.262 C 
ATOM    427  O4'  DG A  20      71.755 102.288 197.951  1.00  0.00    -0.353 OA
BRANCH 424 428
ATOM    428  O3'  DG A  20      70.244 105.039 199.704  1.00  0.00    -0.279 OA
BRANCH 428 429
ATOM    429  P    DA A  21      68.817 105.727 199.985  1.00  0.00     0.408 P 
ATOM    430  OP2  DA A  21      67.833 105.172 199.022  1.00  0.00    -0.624 OA
ATOM    431  OP1  DA A  21      68.557 105.616 201.444  1.00  0.00    -0.624 OA
BRANCH 429 432
ATOM    432  O5'  DA A  21      69.051 107.267 199.646  1.00  0.00    -0.287 OA
BRANCH 432 433
ATOM    433  C5'  DA A  21      68.942 107.755 198.308  1.00  0.00     0.216 C 
BRANCH 433 434
ATOM    434  C4'  DA A  21      70.176 108.546 197.940  1.00  0.00     0.180 C 
ATOM    435  O4'  DA A  21      69.771 109.883 197.541  1.00  0.00    -0.353 OA
ATOM    436  C1'  DA A  21      70.724 110.828 197.994  1.00  0.00     0.262 C 
ATOM    437  C2'  DA A  21      71.868 110.060 198.658  1.00  0.00     0.199 C 
ATOM    438  C3'  DA A  21      71.171 108.768 199.071  1.00  0.00     0.198 C 
BRANCH 436 439
ATOM    439  N9   DA A  21      70.053 111.764 198.894  1.00  0.00    -0.294 N 
ATOM    440  C8   DA A  21      69.572 111.523 200.157  1.00  0.00     0.214 A 
ATOM    441  N7   DA A  21      69.024 112.572 200.722  1.00  0.00    -0.236 NA
ATOM    442  C5   DA A  21      69.150 113.569 199.766  1.00  0.00     0.149 A 
ATOM    443  C6   DA A  21      68.765 114.922 199.752  1.00  0.00     0.155 A 
ATOM    444  C4   DA A  21      69.779 113.086 198.634  1.00  0.00     0.167 A 
ATOM    445  N1   DA A  21      69.036 115.641 198.642  1.00  0.00    -0.222 NA
ATOM    446  C2   DA A  21      69.653 115.035 197.620  1.00  0.00     0.237 A 
ATOM    447  N3   DA A  21      70.064 113.773 197.514  1.00  0.00    -0.222 NA
BRANCH 443 448
ATOM    448  N6   DA A  21      68.152 115.528 200.768  1.00  0.00    -0.382 N 
ATOM    449  H61  DA A  21      67.144 115.510 200.831  1.00  0.00     0.157 HD
ATOM    450  H62  DA A  21      68.700 116.000 201.472  1.00  0.00     0.157 HD
ENDBRANCH 443 448
ENDBRANCH 436 439
BRANCH 437 451
ATOM    451  O2'  DA A  21      72.867 109.813 197.689  1.00  0.00    -0.388 OA
ATOM    452 2'HO  DA A  21      72.993 110.635 197.213  1.00  0.00     0.210 HD
ENDBRANCH 437 451
BRANCH 438 453
ATOM    453  O3'  DA A  21      72.082 107.677 199.186  1.00  0.00    -0.279 OA
BRANCH 453 454
ATOM    454  P    DG A  22      73.001 107.535 200.500  1.00  0.00     0.408 P 
ATOM    455  OP2  DG A  22      72.469 108.440 201.551  1.00  0.00    -0.624 OA
ATOM    456  OP1  DG A  22      73.138 106.084 200.782  1.00  0.00    -0.624 OA
BRANCH 454 457
ATOM    457  O5'  DG A  22      74.425 108.081 200.033  1.00  0.00    -0.287 OA
BRANCH 457 458
ATOM    458  C5'  DG A  22      75.052 107.595 198.846  1.00  0.00     0.216 C 
BRANCH 458 459
ATOM    459  C4'  DG A  22      76.341 108.342 198.598  1.00  0.00     0.180 C 
ATOM    460  O4'  DG A  22      76.027 109.620 197.970  1.00  0.00    -0.353 OA
ATOM    461  C1'  DG A  22      76.774 110.652 198.589  1.00  0.00     0.262 C 
ATOM    462  C2'  DG A  22      77.872 109.966 199.397  1.00  0.00     0.199 C 
ATOM    463  C3'  DG A  22      77.144 108.706 199.842  1.00  0.00     0.198 C 
BRANCH 461 464
ATOM    464  N9   DG A  22      75.866 111.460 199.398  1.00  0.00    -0.293 N 
ATOM    465  C8   DG A  22      75.837 111.553 200.767  1.00  0.00     0.214 A 
ATOM    466  N7   DG A  22      74.915 112.363 201.210  1.00  0.00    -0.234 NA
ATOM    467  C5   DG A  22      74.294 112.835 200.061  1.00  0.00     0.173 A 
ATOM    468  C4   DG A  22      74.869 112.286 198.933  1.00  0.00     0.187 A 
ATOM    469  C6   DG A  22      73.216 113.744 199.905  1.00  0.00     0.292 A 
ATOM    470  N3   DG A  22      74.547 112.493 197.639  1.00  0.00    -0.044 NA
ATOM    471  C2   DG A  22      73.543 113.342 197.510  1.00  0.00     0.703 A 
ATOM    472  N1   DG A  22      72.903 113.941 198.564  1.00  0.00    -0.153 N 
ATOM    473  H1   DG A  22      72.146 114.572 198.356  1.00  0.00     0.187 HD
ATOM    474  O6   DG A  22      72.575 114.339 200.779  1.00  0.00    -0.265 OA
BRANCH 471 475
ATOM    475  N2   DG A  22      73.093 113.661 196.294  1.00  0.00    -0.233 N 
ATOM    476  H21  DG A  22      72.845 114.619 196.093  1.00  0.00     0.174 HD
ATOM    477  H22  DG A  22      73.005 112.952 195.580  1.00  0.00     0.174 HD
ENDBRANCH 471 475
ENDBRANCH 461 464
BRANCH 462 478
ATOM    478  O2'  DG A  22      78.949 109.658 198.532  1.00  0.00    -0.388 OA
ATOM    479 2'HO  DG A  22      78.780 110.117 197.710  1.00  0.00     0.210 HD
ENDBRANCH 462 478
BRANCH 463 480
ATOM    480  O3'  DG A  22      78.040 107.662 200.217  1.00  0.00    -0.279 OA
BRANCH 480 481
ATOM    481  P    DA A  23      78.062 107.134 201.737  1.00  0.00     0.408 P 
ATOM    482  OP2  DA A  23      76.668 106.850 202.161  1.00  0.00    -0.624 OA
ATOM    483  OP1  DA A  23      79.085 106.061 201.817  1.00  0.00    -0.624 OA
BRANCH 481 484
ATOM    484  O5'  DA A  23      78.589 108.384 202.573  1.00  0.00    -0.287 OA
BRANCH 484 485
ATOM    485  C5'  DA A  23      77.734 109.075 203.481  1.00  0.00     0.216 C 
BRANCH 485 486
ATOM    486  C4'  DA A  23      78.471 109.379 204.766  1.00  0.00     0.180 C 
ATOM    487  O4'  DA A  23      77.584 110.109 205.660  1.00  0.00    -0.353 OA
ATOM    488  C1'  DA A  23      77.745 109.633 206.985  1.00  0.00     0.262 C 
ATOM    489  C2'  DA A  23      78.977 108.731 206.986  1.00  0.00     0.199 C 
ATOM    490  C3'  DA A  23      78.913 108.166 205.573  1.00  0.00     0.198 C 
BRANCH 488 491
ATOM    491  N9   DA A  23      76.513 108.948 207.383  1.00  0.00    -0.294 N 
ATOM    492  C8   DA A  23      75.532 108.448 206.563  1.00  0.00     0.214 A 
ATOM    493  N7   DA A  23      74.538 107.888 207.210  1.00  0.00    -0.236 NA
ATOM    494  C5   DA A  23      74.890 108.027 208.546  1.00  0.00     0.149 A 
ATOM    495  C6   DA A  23      74.253 107.638 209.736  1.00  0.00     0.155 A 
ATOM    496  C4   DA A  23      76.105 108.677 208.666  1.00  0.00     0.167 A 
ATOM    497  N1   DA A  23      74.870 107.925 210.902  1.00  0.00    -0.222 NA
ATOM    498  C2   DA A  23      76.049 108.560 210.863  1.00  0.00     0.237 A 
ATOM    499  N3   DA A  23      76.746 108.978 209.808  1.00  0.00    -0.222 NA
BRANCH 495 500
ATOM    500  N6   DA A  23      73.080 107.006 209.774  1.00  0.00    -0.382 N 
ATOM    501  H62  DA A  23      72.777 106.546 210.622  1.00  0.00     0.157 HD
ATOM    502  H61  DA A  23      72.495 106.986 208.952  1.00  0.00     0.157 HD
ENDBRANCH 495 500
ENDBRANCH 488 491
BRANCH 489 503
ATOM    503  O2'  DA A  23      80.128 109.535 207.167  1.00  0.00    -0.388 OA
ATOM    504 2'HO  DA A  23      79.834 110.347 207.580  1.00  0.00     0.210 HD
ENDBRANCH 489 503
BRANCH 490 505
ATOM    505  O3'  DA A  23      80.167 107.660 205.125  1.00  0.00    -0.279 OA
BRANCH 505 506
ATOM    506  P    DG A  24      81.363 108.679 204.779  1.00  0.00     0.408 P 
ATOM    507  OP1  DG A  24      82.423 108.476 205.798  1.00  0.00    -0.624 OA
ATOM    508  OP2  DG A  24      80.791 110.035 204.574  1.00  0.00    -0.624 OA
BRANCH 506 509
ATOM    509  O5'  DG A  24      81.916 108.157 203.378  1.00  0.00    -0.287 OA
BRANCH 509 510
ATOM    510  C5'  DG A  24      83.311 107.937 203.174  1.00  0.00     0.216 C 
BRANCH 510 511
ATOM    511  C4'  DG A  24      83.547 106.539 202.654  1.00  0.00     0.180 C 
ATOM    512  O4'  DG A  24      82.294 106.004 202.154  1.00  0.00    -0.353 OA
ATOM    513  C1'  DG A  24      82.540 105.200 201.013  1.00  0.00     0.262 C 
ATOM    514  C2'  DG A  24      84.051 105.158 200.782  1.00  0.00     0.199 C 
ATOM    515  C3'  DG A  24      84.501 106.440 201.474  1.00  0.00     0.198 C 
BRANCH 513 516
ATOM    516  N9   DG A  24      81.791 105.755 199.890  1.00  0.00    -0.293 N 
ATOM    517  C4   DG A  24      81.106 105.045 198.935  1.00  0.00     0.187 A 
ATOM    518  N3   DG A  24      81.009 103.702 198.863  1.00  0.00    -0.044 NA
ATOM    519  C5   DG A  24      80.557 105.993 198.097  1.00  0.00     0.173 A 
ATOM    520  C2   DG A  24      80.283 103.314 197.830  1.00  0.00     0.703 A 
ATOM    521  N1   DG A  24      79.696 104.174 196.939  1.00  0.00    -0.153 N 
ATOM    522  H1   DG A  24      79.162 103.774 196.183  1.00  0.00     0.187 HD
ATOM    523  C6   DG A  24      79.778 105.560 196.994  1.00  0.00     0.292 A 
ATOM    524  O6   DG A  24      79.207 106.243 196.137  1.00  0.00    -0.265 OA
ATOM    525  N7   DG A  24      80.894 107.274 198.514  1.00  0.00    -0.234 NA
ATOM    526  C8   DG A  24      81.627 107.083 199.576  1.00  0.00     0.214 A 
BRANCH 520 527
ATOM    527  N2   DG A  24      80.087 102.012 197.609  1.00  0.00    -0.233 N 
ATOM    528  H21  DG A  24      80.531 101.338 198.215  1.00  0.00     0.174 HD
ATOM    529  H22  DG A  24      79.507 101.701 196.843  1.00  0.00     0.174 HD
ENDBRANCH 520 527
ENDBRANCH 513 516
BRANCH 514 530
ATOM    530  O2'  DG A  24      84.578 104.017 201.433  1.00  0.00    -0.388 OA
ATOM    531 2'HO  DG A  24      85.523 104.153 201.502  1.00  0.00     0.210 HD
ENDBRANCH 514 530
BRANCH 515 532
ATOM    532  O3'  DG A  24      85.856 106.376 201.908  1.00  0.00    -0.279 OA
BRANCH 532 533
ATOM    533  P    DC A  25      86.213 105.675 203.310  1.00  0.00     0.408 P 
ATOM    534  OP2  DC A  25      87.263 106.483 203.979  1.00  0.00    -0.624 OA
ATOM    535  OP1  DC A  25      84.927 105.419 204.008  1.00  0.00    -0.624 OA
BRANCH 533 536
ATOM    536  O5'  DC A  25      86.847 104.275 202.888  1.00  0.00    -0.287 OA
BRANCH 536 537
ATOM    537  C5'  DC A  25      88.259 104.067 202.917  1.00  0.00     0.216 C 
BRANCH 537 538
ATOM    538  C4'  DC A  25      88.698 103.667 204.307  1.00  0.00     0.180 C 
ATOM    539  O4'  DC A  25      87.549 103.134 205.018  1.00  0.00    -0.353 OA
ATOM    540  C1'  DC A  25      87.951 102.049 205.834  1.00  0.00     0.264 C 
ATOM    541  C2'  DC A  25      89.470 101.907 205.722  1.00  0.00     0.199 C 
ATOM    542  C3'  DC A  25      89.746 102.563 204.372  1.00  0.00     0.198 C 
ATOM    543  O2'  DC A  25      90.071 102.639 206.773  1.00  0.00    -0.388 OA
ATOM    544  O3'  DC A  25      91.070 103.088 204.305  1.00  0.00    -0.279 OA
ATOM    545  P    DG A  26      91.737 103.414 202.877  1.00  0.00     0.408 P 
ATOM    546  OP1  DG A  26      92.171 104.834 202.915  1.00  0.00    -0.624 OA
ATOM    547  OP2  DG A  26      90.836 102.952 201.793  1.00  0.00    -0.624 OA
ATOM    548  O5'  DG A  26      93.048 102.507 202.845  1.00  0.00    -0.287 OA
ATOM    549  C5'  DG A  26      93.785 102.231 204.036  1.00  0.00     0.216 C 
ATOM    550  C4'  DG A  26      94.015 100.742 204.171  1.00  0.00     0.180 C 
ATOM    551  O4'  DG A  26      92.743 100.104 204.467  1.00  0.00    -0.353 OA
ATOM    552  C3'  DG A  26      94.525 100.048 202.913  1.00  0.00     0.198 C 
ATOM    553  C1'  DG A  26      92.613  98.915 203.709  1.00  0.00     0.262 C 
ATOM    554  N9   DG A  26      91.517  99.097 202.761  1.00  0.00    -0.293 N 
ATOM    555  C2'  DG A  26      93.966  98.638 203.054  1.00  0.00     0.199 C 
ATOM    556  C8   DG A  26      91.459  99.991 201.720  1.00  0.00     0.214 A 
ATOM    557  C4   DG A  26      90.331  98.403 202.741  1.00  0.00     0.187 A 
ATOM    558  N7   DG A  26      90.344  99.927 201.048  1.00  0.00    -0.234 NA
ATOM    559  C5   DG A  26      89.619  98.927 201.682  1.00  0.00     0.173 A 
ATOM    560  C6   DG A  26      88.327  98.409 201.406  1.00  0.00     0.292 A 
ATOM    561  N1   DG A  26      87.979  97.400 202.295  1.00  0.00    -0.153 N 
ATOM    562  O6   DG A  26      87.536  98.743 200.518  1.00  0.00    -0.265 OA
ATOM    563  C2   DG A  26      88.768  96.948 203.321  1.00  0.00     0.703 A 
ATOM    564  H1   DG A  26      87.076  96.968 202.174  1.00  0.00     0.187 HD
ATOM    565  N2   DG A  26      88.255  95.966 204.067  1.00  0.00    -0.233 N 
ATOM    566  N3   DG A  26      89.970  97.421 203.594  1.00  0.00    -0.044 NA
ATOM    567  H21  DG A  26      88.802  95.598 204.835  1.00  0.00     0.174 HD
ATOM    568  H22  DG A  26      87.340  95.589 203.869  1.00  0.00     0.174 HD
ATOM    569  O2'  DG A  26      94.750  97.864 203.941  1.00  0.00    -0.388 OA
ATOM    570 2'HO  DG A  26      95.644  98.207 203.888  1.00  0.00     0.210 HD
ATOM    571  O3'  DG A  26      95.949 100.061 202.847  1.00  0.00    -0.279 OA
ATOM    572  P    DC A  27      96.683 100.289 201.433  1.00  0.00     0.408 P 
ATOM    573  O5'  DC A  27      96.573  98.874 200.706  1.00  0.00    -0.287 OA
ATOM    574  OP1  DC A  27      98.115 100.561 201.716  1.00  0.00    -0.624 OA
ATOM    575  OP2  DC A  27      95.893 101.270 200.646  1.00  0.00    -0.624 OA
ATOM    576  C5'  DC A  27      97.589  97.882 200.860  1.00  0.00     0.216 C 
ATOM    577  C4'  DC A  27      96.965  96.512 201.009  1.00  0.00     0.180 C 
ATOM    578  O4'  DC A  27      95.568  96.654 201.387  1.00  0.00    -0.353 OA
ATOM    579  C3'  DC A  27      96.922  95.674 199.739  1.00  0.00     0.198 C 
ATOM    580  C1'  DC A  27      94.796  95.650 200.751  1.00  0.00     0.264 C 
ATOM    581  N1   DC A  27      93.819  96.301 199.860  1.00  0.00    -0.278 N 
ATOM    582  C2'  DC A  27      95.764  94.725 200.017  1.00  0.00     0.199 C 
ATOM    583  C2   DC A  27      92.821  95.521 199.268  1.00  0.00     0.352 A 
ATOM    584  C6   DC A  27      93.881  97.644 199.612  1.00  0.00     0.102 A 
ATOM    585  N3   DC A  27      91.919  96.109 198.453  1.00  0.00    -0.177 NA
ATOM    586  O2   DC A  27      92.787  94.304 199.504  1.00  0.00    -0.244 OA
ATOM    587  C4   DC A  27      91.986  97.421 198.220  1.00  0.00     0.128 A 
ATOM    588  N4   DC A  27      91.072  97.955 197.412  1.00  0.00    -0.384 N 
ATOM    589  C5   DC A  27      92.993  98.241 198.806  1.00  0.00     0.067 A 
ATOM    590  H42  DC A  27      90.362  97.363 197.003  1.00  0.00     0.157 HD
ATOM    591  H41  DC A  27      91.086  98.944 197.210  1.00  0.00     0.157 HD
ATOM    592  O2'  DC A  27      96.152  93.684 200.896  1.00  0.00    -0.388 OA
ATOM    593 2'HO  DC A  27      97.108  93.696 200.935  1.00  0.00     0.210 HD
ATOM    594  O3'  DC A  27      98.151  94.987 199.517  1.00  0.00    -0.279 OA
ATOM    595  P    DT A  28      98.553  94.535 198.027  1.00  0.00     0.408 P 
ATOM    596  OP1  DT A  28      99.940  94.005 198.082  1.00  0.00    -0.624 OA
ATOM    597  OP2  DT A  28      98.227  95.643 197.094  1.00  0.00    -0.624 OA
ATOM    598  O5'  DT A  28      97.570  93.319 197.715  1.00  0.00    -0.287 OA
ATOM    599  C5'  DT A  28      97.577  92.144 198.524  1.00  0.00     0.216 C 
ATOM    600  C4'  DT A  28      96.576  91.143 197.998  1.00  0.00     0.180 C 
ATOM    601  O4'  DT A  28      95.233  91.647 198.235  1.00  0.00    -0.353 OA
ATOM    602  C3'  DT A  28      96.620  90.890 196.498  1.00  0.00     0.198 C 
ATOM    603  C1'  DT A  28      94.394  91.302 197.146  1.00  0.00     0.264 C 
ATOM    604  C2'  DT A  28      95.205  90.405 196.211  1.00  0.00     0.199 C 
ATOM    605  N1   DT A  28      93.921  92.540 196.511  1.00  0.00    -0.280 N 
ATOM    606  O2'  DT A  28      95.034  89.059 196.613  1.00  0.00    -0.388 OA
ATOM    607 2'HO  DT A  28      95.902  88.725 196.843  1.00  0.00     0.210 HD
ATOM    608  C2   DT A  28      92.741  92.482 195.790  1.00  0.00     0.331 A 
ATOM    609  C6   DT A  28      94.624  93.718 196.626  1.00  0.00     0.104 A 
ATOM    610  N3   DT A  28      92.352  93.668 195.224  1.00  0.00    -0.275 N 
ATOM    611  O2   DT A  28      92.091  91.463 195.664  1.00  0.00    -0.246 OA
ATOM    612  C4   DT A  28      93.003  94.878 195.301  1.00  0.00     0.250 A 
ATOM    613  H3   DT A  28      91.494  93.644 194.693  1.00  0.00     0.173 HD
ATOM    614  O4   DT A  28      92.520  95.861 194.740  1.00  0.00    -0.268 OA
ATOM    615  C5   DT A  28      94.212  94.855 196.060  1.00  0.00     0.092 A 
ATOM    616  O3'  DT A  28      97.609  89.925 196.150  1.00  0.00    -0.279 OA
ATOM    617  P    DT A  29      98.164  89.858 194.642  1.00  0.00     0.408 P 
ATOM    618  OP1  DT A  29      99.257  88.853 194.614  1.00  0.00    -0.624 OA
ATOM    619  OP2  DT A  29      98.430  91.244 194.176  1.00  0.00    -0.624 OA
ATOM    620  O5'  DT A  29      96.936  89.283 193.802  1.00  0.00    -0.287 OA
ATOM    621  C5'  DT A  29      96.346  88.026 194.133  1.00  0.00     0.216 C 
ATOM    622  C4'  DT A  29      95.235  87.699 193.162  1.00  0.00     0.180 C 
ATOM    623  C3'  DT A  29      95.528  87.988 191.698  1.00  0.00     0.198 C 
ATOM    624  O4'  DT A  29      94.081  88.532 193.453  1.00  0.00    -0.353 OA
ATOM    625  O3'  DT A  29      96.286  86.944 191.093  1.00  0.00    -0.279 OA
ATOM    626  C2'  DT A  29      94.127  88.112 191.115  1.00  0.00     0.199 C 
ATOM    627  P    DC A  30      97.225  87.269 189.828  1.00  0.00     0.408 P 
ATOM    628  OP1  DC A  30      97.995  86.038 189.518  1.00  0.00    -0.624 OA
ATOM    629  O5'  DC A  30      96.194  87.522 188.639  1.00  0.00    -0.287 OA
ATOM    630  OP2  DC A  30      97.947  88.540 190.089  1.00  0.00    -0.624 OA
ATOM    631  C5'  DC A  30      95.208  86.550 188.302  1.00  0.00     0.216 C 
ATOM    632  C4'  DC A  30      94.198  87.141 187.347  1.00  0.00     0.180 C 
ATOM    633  O4'  DC A  30      93.430  88.165 188.035  1.00  0.00    -0.353 OA
ATOM    634  C3'  DC A  30      94.781  87.871 186.147  1.00  0.00     0.198 C 
ATOM    635  C1'  DC A  30      93.100  89.202 187.125  1.00  0.00     0.264 C 
ATOM    636  C2'  DC A  30      93.642  88.801 185.753  1.00  0.00     0.199 C 
ATOM    637  N1   DC A  30      93.663  90.466 187.631  1.00  0.00    -0.278 N 
ATOM    638  O2'  DC A  30      92.628  88.103 185.053  1.00  0.00    -0.388 OA
ATOM    639 2'HO  DC A  30      93.030  87.306 184.706  1.00  0.00     0.210 HD
ATOM    640  C2   DC A  30      93.079  91.669 187.230  1.00  0.00     0.352 A 
ATOM    641  C6   DC A  30      94.739  90.470 188.474  1.00  0.00     0.102 A 
ATOM    642  N3   DC A  30      93.588  92.836 187.684  1.00  0.00    -0.177 NA
ATOM    643  O2   DC A  30      92.105  91.639 186.465  1.00  0.00    -0.244 OA
ATOM    644  C4   DC A  30      94.634  92.830 188.510  1.00  0.00     0.128 A 
ATOM    645  N4   DC A  30      95.098  94.004 188.933  1.00  0.00    -0.384 N 
ATOM    646  C5   DC A  30      95.251  91.618 188.937  1.00  0.00     0.067 A 
ATOM    647  H42  DC A  30      94.653  94.858 188.624  1.00  0.00     0.157 HD
ATOM    648  H41  DC A  30      95.889  94.045 189.559  1.00  0.00     0.157 HD
ATOM    649  O3'  DC A  30      95.142  86.971 185.103  1.00  0.00    -0.279 OA
ATOM    650  P    DA A  31      96.301  87.377 184.063  1.00  0.00     0.408 P 
ATOM    651  OP1  DA A  31      96.626  86.167 183.267  1.00  0.00    -0.624 OA
ATOM    652  O5'  DA A  31      95.599  88.434 183.100  1.00  0.00    -0.287 OA
ATOM    653  OP2  DA A  31      97.380  88.075 184.810  1.00  0.00    -0.624 OA
ATOM    654  C5'  DA A  31      94.463  88.071 182.317  1.00  0.00     0.216 C 
ATOM    655  C4'  DA A  31      93.996  89.250 181.497  1.00  0.00     0.180 C 
ATOM    656  O4'  DA A  31      93.342  90.210 182.371  1.00  0.00    -0.353 OA
ATOM    657  C3'  DA A  31      95.092  90.057 180.817  1.00  0.00     0.198 C 
ATOM    658  C1'  DA A  31      93.628  91.528 181.931  1.00  0.00     0.262 C 
ATOM    659  N9   DA A  31      94.354  92.224 182.993  1.00  0.00    -0.294 N 
ATOM    660  C2'  DA A  31      94.421  91.412 180.628  1.00  0.00     0.199 C 
ATOM    661  C4   DA A  31      94.387  93.582 183.197  1.00  0.00     0.167 A 
ATOM    662  C8   DA A  31      95.137  91.677 183.978  1.00  0.00     0.214 A 
ATOM    663  C5   DA A  31      95.196  93.776 184.302  1.00  0.00     0.149 A 
ATOM    664  N3   DA A  31      93.767  94.530 182.476  1.00  0.00    -0.222 NA
ATOM    665  N7   DA A  31      95.663  92.563 184.788  1.00  0.00    -0.236 NA
ATOM    666  C6   DA A  31      95.395  95.104 184.720  1.00  0.00     0.155 A 
ATOM    667  N1   DA A  31      94.788  96.083 184.015  1.00  0.00    -0.222 NA
ATOM    668  C2   DA A  31      94.031  95.740 182.964  1.00  0.00     0.237 A 
ATOM    669  O2'  DT A  29      93.531  86.839 190.943  1.00  0.00    -0.388 OA
ATOM    670  C1'  DT A  29      93.403  88.843 192.246  1.00  0.00     0.264 C 
ATOM    671 2'HO  DT A  29      94.231  86.192 191.035  1.00  0.00     0.210 HD
ATOM    672  N1   DT A  29      93.385  90.304 192.083  1.00  0.00    -0.280 N 
ATOM    673  C2   DT A  29      92.353  90.859 191.347  1.00  0.00     0.331 A 
ATOM    674  C6   DT A  29      94.362  91.097 192.642  1.00  0.00     0.104 A 
ATOM    675  O2   DT A  29      91.470  90.194 190.837  1.00  0.00    -0.246 OA
ATOM    676  N3   DT A  29      92.394  92.225 191.229  1.00  0.00    -0.275 N 
ATOM    677  C4   DT A  29      93.335  93.074 191.761  1.00  0.00     0.250 A 
ATOM    678  H3   DT A  29      91.652  92.650 190.693  1.00  0.00     0.173 HD
ATOM    679  O4   DT A  29      93.235  94.285 191.565  1.00  0.00    -0.268 OA
ATOM    680  C5   DT A  29      94.367  92.427 192.508  1.00  0.00     0.092 A 
ATOM    681 2'HO  DC A  25      90.845 103.064 206.401  1.00  0.00     0.210 HD
BRANCH 540 682
ATOM    682  N1   DC A  25      87.210 100.851 205.408  1.00  0.00    -0.278 N 
ATOM    683  C2   DC A  25      87.189  99.736 206.251  1.00  0.00     0.352 A 
ATOM    684  N3   DC A  25      86.514  98.630 205.867  1.00  0.00    -0.177 NA
ATOM    685  O2   DC A  25      87.790  99.789 207.335  1.00  0.00    -0.244 OA
ATOM    686  C4   DC A  25      85.876  98.611 204.696  1.00  0.00     0.128 A 
ATOM    687  N4   DC A  25      85.222  97.498 204.364  1.00  0.00    -0.384 N 
ATOM    688  C5   DC A  25      85.879  99.733 203.817  1.00  0.00     0.067 A 
ATOM    689  H42  DC A  25      85.215  96.712 204.998  1.00  0.00     0.157 HD
ATOM    690  H41  DC A  25      84.724  97.443 203.487  1.00  0.00     0.157 HD
ATOM    691  C6   DC A  25      86.552 100.822 204.211  1.00  0.00     0.102 A 
ENDBRANCH 540 682
BRANCH 666 692
ATOM    692  N6   DA A  31      96.144  95.444 185.768  1.00  0.00    -0.382 N 
ATOM    693  H62  DA A  31      96.601  94.725 186.315  1.00  0.00     0.157 HD
ATOM    694  H61  DA A  31      96.256  96.416 186.014  1.00  0.00     0.157 HD
ENDBRANCH 666 692
BRANCH 660 695
ATOM    695  O2'  DA A  31      93.511  91.386 179.545  1.00  0.00    -0.388 OA
ATOM    696 2'HO  DA A  31      93.942  91.828 178.812  1.00  0.00     0.210 HD
ENDBRANCH 660 695
BRANCH 657 697
ATOM    697  O3'  DA A  31      95.498  89.473 179.583  1.00  0.00    -0.279 OA
BRANCH 697 698
ATOM    698  P    DA A  32      96.937  89.836 178.963  1.00  0.00     0.408 P 
ATOM    699  OP2  DA A  32      97.967  89.612 180.008  1.00  0.00    -0.624 OA
ATOM    700  OP1  DA A  32      97.046  89.130 177.661  1.00  0.00    -0.624 OA
BRANCH 698 701
ATOM    701  O5'  DA A  32      96.848  91.401 178.673  1.00  0.00    -0.287 OA
ATOM    702  C5'  DA A  32      95.930  91.916 177.711  1.00  0.00     0.216 C 
ATOM    703  C4'  DA A  32      95.860  93.425 177.803  1.00  0.00     0.180 C 
ATOM    704  C3'  DA A  32      97.135  94.172 177.450  1.00  0.00     0.198 C 
ATOM    705  O4'  DA A  32      95.625  93.826 179.173  1.00  0.00    -0.353 OA
ATOM    706  O3'  DA A  32      97.299  94.287 176.039  1.00  0.00    -0.279 OA
ATOM    707  C2'  DA A  32      96.928  95.528 178.124  1.00  0.00     0.199 C 
ATOM    708  P    DT A  33      98.777  94.336 175.406  1.00  0.00     0.408 P 
ATOM    709  OP1  DT A  33      98.645  94.842 174.016  1.00  0.00    -0.624 OA
ATOM    710  OP2  DT A  33      99.431  93.026 175.652  1.00  0.00    -0.624 OA
ATOM    711  O5'  DT A  33      99.530  95.442 176.271  1.00  0.00    -0.287 OA
ATOM    712  C5'  DT A  33      99.259  96.830 176.086  1.00  0.00     0.216 C 
ATOM    713  C4'  DT A  33     100.184  97.660 176.944  1.00  0.00     0.180 C 
ATOM    714  O4'  DT A  33      99.798  97.523 178.335  1.00  0.00    -0.353 OA
ATOM    715  C3'  DT A  33     101.645  97.238 176.925  1.00  0.00     0.198 C 
ATOM    716  C1'  DT A  33     100.947  97.610 179.158  1.00  0.00     0.264 C 
ATOM    717  N1   DT A  33     101.001  96.408 180.002  1.00  0.00    -0.280 N 
ATOM    718  C2'  DT A  33     102.168  97.783 178.250  1.00  0.00     0.199 C 
ATOM    719  C2   DT A  33     101.265  96.578 181.350  1.00  0.00     0.331 A 
ATOM    720  C6   DT A  33     100.797  95.154 179.474  1.00  0.00     0.104 A 
ATOM    721  N3   DT A  33     101.310  95.420 182.082  1.00  0.00    -0.275 N 
ATOM    722  O2   DT A  33     101.444  97.671 181.858  1.00  0.00    -0.246 OA
ATOM    723  H3   DT A  33     101.513  95.520 183.066  1.00  0.00     0.173 HD
ATOM    724  C4   DT A  33     101.118  94.139 181.619  1.00  0.00     0.250 A 
ATOM    725  C5   DT A  33     100.846  94.047 180.219  1.00  0.00     0.092 A 
ATOM    726  O4   DT A  33     101.188  93.197 182.407  1.00  0.00    -0.268 OA
ATOM    727  O2'  DT A  33     102.461  99.164 178.152  1.00  0.00    -0.388 OA
ATOM    728 2'HO  DT A  33     102.704  99.337 177.243  1.00  0.00     0.210 HD
ATOM    729  O3'  DT A  33     102.328  97.784 175.801  1.00  0.00    -0.279 OA
ATOM    730  P    DG A  34     103.440  96.909 175.038  1.00  0.00     0.408 P 
ATOM    731  OP2  DG A  34     102.828  95.611 174.652  1.00  0.00    -0.624 OA
ATOM    732  OP1  DG A  34     104.049  97.772 173.995  1.00  0.00    -0.624 OA
ATOM    733  O5'  DG A  34     104.536  96.631 176.160  1.00  0.00    -0.287 OA
ATOM    734  C5'  DG A  34     105.486  95.577 176.017  1.00  0.00     0.216 C 
ATOM    735  C4'  DG A  34     106.669  95.820 176.923  1.00  0.00     0.180 C 
ATOM    736  O4'  DG A  34     107.363  97.015 176.473  1.00  0.00    -0.353 OA
ATOM    737  C3'  DG A  34     106.328  96.095 178.383  1.00  0.00     0.198 C 
ATOM    738  C1'  DG A  34     107.798  97.768 177.589  1.00  0.00     0.262 C 
ATOM    739  N9   DG A  34     107.135  99.067 177.554  1.00  0.00    -0.293 N 
ATOM    740  C2'  DG A  34     107.499  96.953 178.848  1.00  0.00     0.199 C 
ATOM    741  C8   DG A  34     105.924  99.368 176.982  1.00  0.00     0.214 A 
ATOM    742  C4   DG A  34     107.611 100.239 178.090  1.00  0.00     0.187 A 
ATOM    743  N7   DG A  34     105.594 100.624 177.104  1.00  0.00    -0.234 NA
ATOM    744  C5   DG A  34     106.654 101.188 177.803  1.00  0.00     0.173 A 
ATOM    745  C6   DG A  34     106.867 102.523 178.233  1.00  0.00     0.292 A 
ATOM    746  N1   DG A  34     108.074 102.655 178.909  1.00  0.00    -0.153 N 
ATOM    747  O6   DG A  34     106.140 103.512 178.078  1.00  0.00    -0.265 OA
ATOM    748  H1   DG A  34     108.311 103.572 179.253  1.00  0.00     0.187 HD
ATOM    749  C2   DG A  34     108.961 101.637 179.144  1.00  0.00     0.703 A 
ATOM    750  N2   DG A  34     110.068 101.964 179.817  1.00  0.00    -0.233 N 
ATOM    751  N3   DG A  34     108.777 100.392 178.750  1.00  0.00    -0.044 NA
ATOM    752  H22  DG A  34     110.221 102.913 180.123  1.00  0.00     0.174 HD
ATOM    753  H21  DG A  34     110.751 101.248 180.014  1.00  0.00     0.174 HD
ATOM    754  O2'  DG A  34     108.628  96.154 179.149  1.00  0.00    -0.388 OA
ATOM    755 2'HO  DG A  34     108.301  95.267 179.304  1.00  0.00     0.210 HD
ATOM    756  O3'  DG A  34     106.219  94.880 179.124  1.00  0.00    -0.279 OA
ATOM    757  P    DG A  35     105.270  94.815 180.422  1.00  0.00     0.408 P 
ATOM    758  OP2  DG A  35     103.918  95.301 180.044  1.00  0.00    -0.624 OA
ATOM    759  O5'  DG A  35     105.918  95.862 181.434  1.00  0.00    -0.287 OA
ATOM    760  OP1  DG A  35     105.423  93.457 181.005  1.00  0.00    -0.624 OA
ATOM    761  C5'  DG A  35     107.225  95.658 181.971  1.00  0.00     0.216 C 
ATOM    762  C4'  DG A  35     107.569  96.763 182.943  1.00  0.00     0.180 C 
ATOM    763  C3'  DG A  35     106.467  97.124 183.934  1.00  0.00     0.198 C 
ATOM    764  O4'  DG A  35     107.825  97.977 182.184  1.00  0.00    -0.353 OA
ATOM    765  C2'  DG A  35     106.672  98.619 184.154  1.00  0.00     0.199 C 
ATOM    766  O3'  DG A  35     106.598  96.383 185.146  1.00  0.00    -0.279 OA
ATOM    767  C1'  DG A  35     107.138  99.065 182.769  1.00  0.00     0.262 C 
ATOM    768  O2'  DG A  35     107.711  98.860 185.084  1.00  0.00    -0.388 OA
ATOM    769  N9   DG A  35     106.052  99.455 181.875  1.00  0.00    -0.293 N 
ATOM    770  C8   DG A  35     105.130  98.629 181.279  1.00  0.00     0.214 A 
ATOM    771  C4   DG A  35     105.751 100.731 181.461  1.00  0.00     0.187 A 
ATOM    772  N7   DG A  35     104.276  99.267 180.528  1.00  0.00    -0.234 NA
ATOM    773  C5   DG A  35     104.658 100.598 180.632  1.00  0.00     0.173 A 
ATOM    774  C6   DG A  35     104.106 101.763 180.038  1.00  0.00     0.292 A 
ATOM    775  N1   DG A  35     104.799 102.906 180.415  1.00  0.00    -0.153 N 
ATOM    776  O6   DG A  35     103.139 101.858 179.274  1.00  0.00    -0.265 OA
ATOM    777  C2   DG A  35     105.884 102.929 181.253  1.00  0.00     0.703 A 
ATOM    778  H1   DG A  35     104.474 103.782 180.039  1.00  0.00     0.187 HD
ATOM    779  N2   DG A  35     106.416 104.130 181.495  1.00  0.00    -0.233 N 
ATOM    780  N3   DG A  35     106.411 101.855 181.811  1.00  0.00    -0.044 NA
ATOM    781  H22  DG A  35     106.015 104.958 181.080  1.00  0.00     0.174 HD
ATOM    782  H21  DG A  35     107.217 104.200 182.106  1.00  0.00     0.174 HD
ATOM    783 2'HO  DG A  35     108.031  98.004 185.370  1.00  0.00     0.210 HD
ATOM    784  P    DC A  36     105.309  96.140 186.081  1.00  0.00     0.408 P 
ATOM    785  O5'  DC A  36     105.525  97.136 187.306  1.00  0.00    -0.287 OA
ATOM    786  OP2  DC A  36     104.092  96.564 185.344  1.00  0.00    -0.624 OA
ATOM    787  OP1  DC A  36     105.405  94.752 186.599  1.00  0.00    -0.624 OA
ATOM    788  C5'  DC A  36     104.584  97.192 188.379  1.00  0.00     0.216 C 
ATOM    789  C4'  DC A  36     104.876  98.375 189.273  1.00  0.00     0.180 C 
ATOM    790  C3'  DC A  36     105.288  99.657 188.550  1.00  0.00     0.198 C 
ATOM    791  O4'  DC A  36     105.994  98.032 190.140  1.00  0.00    -0.353 OA
ATOM    792  O3'  DC A  36     104.755 100.810 189.197  1.00  0.00    -0.279 OA
ATOM    793  C2'  DC A  36     106.811  99.621 188.613  1.00  0.00     0.199 C 
ATOM    794  P    DA A  37     103.432 101.515 188.615  1.00  0.00     0.408 P 
ATOM    795  OP2  DA A  37     102.432 100.465 188.298  1.00  0.00    -0.624 OA
ATOM    796  OP1  DA A  37     103.075 102.608 189.555  1.00  0.00    -0.624 OA
ATOM    797  O5'  DA A  37     103.915 102.174 187.247  1.00  0.00    -0.287 OA
ATOM    798  C5'  DA A  37     105.077 103.003 187.198  1.00  0.00     0.216 C 
ATOM    799  C4'  DA A  37     104.858 104.153 186.242  1.00  0.00     0.180 C 
ATOM    800  C3'  DA A  37     103.424 104.664 186.156  1.00  0.00     0.198 C 
ATOM    801  O4'  DA A  37     105.185 103.704 184.898  1.00  0.00    -0.353 OA
ATOM    802  O3'  DA A  37     103.177 105.697 187.107  1.00  0.00    -0.279 OA
ATOM    803  C2'  DA A  37     103.332 105.170 184.722  1.00  0.00     0.199 C 
ATOM    804  P    DT A  38     101.697 105.893 187.706  1.00  0.00     0.408 P 
ATOM    805  O5'  DT A  38     100.740 105.682 186.449  1.00  0.00    -0.287 OA
ATOM    806  OP1  DT A  38     101.581 107.305 188.152  1.00  0.00    -0.624 OA
ATOM    807  OP2  DT A  38     101.434 104.796 188.670  1.00  0.00    -0.624 OA
ATOM    808  C5'  DT A  38     100.509 106.734 185.513  1.00  0.00     0.216 C 
ATOM    809  C4'  DT A  38      99.494 106.298 184.483  1.00  0.00     0.180 C 
ATOM    810  C3'  DT A  38      98.161 105.827 185.046  1.00  0.00     0.198 C 
ATOM    811  O4'  DT A  38     100.010 105.147 183.765  1.00  0.00    -0.353 OA
ATOM    812  C2'  DT A  38      97.648 104.893 183.956  1.00  0.00     0.199 C 
ATOM    813  O3'  DT A  38      97.286 106.926 185.285  1.00  0.00    -0.279 OA
ATOM    814  O2'  DT A  38      97.061 105.619 182.892  1.00  0.00    -0.388 OA
ATOM    815  C1'  DT A  38      98.948 104.261 183.455  1.00  0.00     0.264 C 
ATOM    816 2'HO  DT A  38      96.141 105.756 183.124  1.00  0.00     0.210 HD
ATOM    817  N1   DT A  38      99.246 102.954 184.059  1.00  0.00    -0.280 N 
ATOM    818  C6   DT A  38     100.013 102.850 185.198  1.00  0.00     0.104 A 
ATOM    819  C2   DT A  38      98.731 101.828 183.443  1.00  0.00     0.331 A 
ATOM    820  C5   DT A  38     100.301 101.673 185.761  1.00  0.00     0.092 A 
ATOM    821  C4   DT A  38      99.809 100.463 185.181  1.00  0.00     0.250 A 
ATOM    822  N3   DT A  38      99.051 100.639 184.047  1.00  0.00    -0.275 N 
ATOM    823  O4   DT A  38     100.004  99.324 185.605  1.00  0.00    -0.268 OA
ATOM    824  H3   DT A  38      98.697  99.801 183.609  1.00  0.00     0.173 HD
ATOM    825  O2   DT A  38      98.042 101.876 182.440  1.00  0.00    -0.246 OA
ATOM    826  P    DT A  39      95.966 106.718 186.179  1.00  0.00     0.408 P 
ATOM    827  OP1  DT A  39      95.414 108.066 186.468  1.00  0.00    -0.624 OA
ATOM    828  OP2  DT A  39      96.297 105.806 187.304  1.00  0.00    -0.624 OA
ATOM    829  O5'  DT A  39      94.953 105.970 185.201  1.00  0.00    -0.287 OA
ATOM    830  C5'  DT A  39      94.327 104.747 185.584  1.00  0.00     0.216 C 
ATOM    831  C4'  DT A  39      93.733 104.068 184.372  1.00  0.00     0.180 C 
ATOM    832  C3'  DT A  39      92.622 103.071 184.667  1.00  0.00     0.198 C 
ATOM    833  O4'  DT A  39      94.768 103.285 183.717  1.00  0.00    -0.353 OA
ATOM    834  O3'  DT A  39      91.352 103.712 184.755  1.00  0.00    -0.279 OA
ATOM    835  C2'  DT A  39      92.719 102.118 183.483  1.00  0.00     0.199 C 
ATOM    836  P    DG A  40      90.240 103.150 185.772  1.00  0.00     0.408 P 
ATOM    837  OP1  DG A  40      89.125 104.131 185.793  1.00  0.00    -0.624 OA
ATOM    838  O5'  DG A  40      89.714 101.820 185.070  1.00  0.00    -0.287 OA
ATOM    839  OP2  DG A  40      90.909 102.772 187.044  1.00  0.00    -0.624 OA
ATOM    840  C5'  DG A  40      89.159 101.854 183.756  1.00  0.00     0.216 C 
ATOM    841  C4'  DG A  40      88.685 100.479 183.358  1.00  0.00     0.180 C 
ATOM    842  O4'  DG A  40      89.842  99.652 183.057  1.00  0.00    -0.353 OA
ATOM    843  C3'  DG A  40      87.934  99.710 184.437  1.00  0.00     0.198 C 
ATOM    844  C1'  DG A  40      89.631  98.338 183.543  1.00  0.00     0.262 C 
ATOM    845  C2'  DG A  40      88.191  98.260 184.049  1.00  0.00     0.199 C 
ATOM    846  N9   DG A  40      90.629  98.060 184.571  1.00  0.00    -0.293 N 
ATOM    847  O2'  DG A  40      87.355  97.863 182.978  1.00  0.00    -0.388 OA
ATOM    848 2'HO  DG A  40      86.636  98.494 182.943  1.00  0.00     0.210 HD
ATOM    849  C8   DG A  40      91.376  98.974 185.273  1.00  0.00     0.214 A 
ATOM    850  C4   DG A  40      91.006  96.821 185.026  1.00  0.00     0.187 A 
ATOM    851  N7   DG A  40      92.193  98.423 186.129  1.00  0.00    -0.234 NA
ATOM    852  C5   DG A  40      91.969  97.059 185.985  1.00  0.00     0.173 A 
ATOM    853  C6   DG A  40      92.561  95.953 186.648  1.00  0.00     0.292 A 
ATOM    854  N1   DG A  40      92.040  94.747 186.193  1.00  0.00    -0.153 N 
ATOM    855  O6   DG A  40      93.431  95.954 187.526  1.00  0.00    -0.265 OA
ATOM    856  C2   DG A  40      91.075  94.620 185.227  1.00  0.00     0.703 A 
ATOM    857  H1   DG A  40      92.402  93.902 186.608  1.00  0.00     0.187 HD
ATOM    858  N3   DG A  40      90.515  95.638 184.603  1.00  0.00    -0.044 NA
ATOM    859  N2   DG A  40      90.701  93.374 184.925  1.00  0.00    -0.233 N 
ATOM    860  H21  DG A  40      89.993  93.228 184.221  1.00  0.00     0.174 HD
ATOM    861  H22  DG A  40      91.123  92.585 185.396  1.00  0.00     0.174 HD
ATOM    862  O3'  DG A  40      86.548 100.037 184.443  1.00  0.00    -0.279 OA
ATOM    863  P    DA A  41      85.672  99.775 185.766  1.00  0.00     0.408 P 
ATOM    864  OP2  DA A  41      86.406 100.323 186.935  1.00  0.00    -0.624 OA
ATOM    865  OP1  DA A  41      84.292 100.245 185.482  1.00  0.00    -0.624 OA
ATOM    866  O5'  DA A  41      85.639  98.187 185.899  1.00  0.00    -0.287 OA
ATOM    867  C5'  DA A  41      85.018  97.378 184.901  1.00  0.00     0.216 C 
ATOM    868  C4'  DA A  41      84.901  95.953 185.387  1.00  0.00     0.180 C 
ATOM    869  C3'  DA A  41      84.452  95.797 186.833  1.00  0.00     0.198 C 
ATOM    870  O4'  DA A  41      86.213  95.331 185.336  1.00  0.00    -0.353 OA
ATOM    871  O3'  DA A  41      83.030  95.789 186.928  1.00  0.00    -0.279 OA
ATOM    872  C2'  DA A  41      85.077  94.468 187.242  1.00  0.00     0.199 C 
ATOM    873  P    DA A  42      82.323  95.917 188.366  1.00  0.00     0.408 P 
ATOM    874  O5'  DA A  42      82.518  94.475 189.018  1.00  0.00    -0.287 OA
ATOM    875  OP1  DA A  42      80.871  96.119 188.128  1.00  0.00    -0.624 OA
ATOM    876  OP2  DA A  42      83.078  96.908 189.176  1.00  0.00    -0.624 OA
ATOM    877  C5'  DA A  42      82.974  94.329 190.362  1.00  0.00     0.216 C 
ATOM    878  C4'  DA A  42      83.485  92.926 190.588  1.00  0.00     0.180 C 
ATOM    879  C3'  DA A  42      83.784  92.575 192.040  1.00  0.00     0.198 C 
ATOM    880  O4'  DA A  42      84.755  92.777 189.890  1.00  0.00    -0.353 OA
ATOM    881  O3'  DA A  42      82.638  92.035 192.694  1.00  0.00    -0.279 OA
ATOM    882  C2'  DA A  42      84.916  91.563 191.909  1.00  0.00     0.199 C 
ATOM    883  P    DG A  43      82.318  92.444 194.217  1.00  0.00     0.408 P 
ATOM    884  O5'  DG A  43      83.277  91.503 195.074  1.00  0.00    -0.287 OA
ATOM    885  OP1  DG A  43      80.915  92.046 194.493  1.00  0.00    -0.624 OA
ATOM    886  OP2  DG A  43      82.735  93.855 194.420  1.00  0.00    -0.624 OA
ATOM    887  C5'  DG A  43      83.263  90.087 194.897  1.00  0.00     0.216 C 
ATOM    888  C4'  DG A  43      84.442  89.459 195.602  1.00  0.00     0.180 C 
ATOM    889  C3'  DG A  43      84.616  89.841 197.066  1.00  0.00     0.198 C 
ATOM    890  O4'  DG A  43      85.669  89.907 194.967  1.00  0.00    -0.353 OA
ATOM    891  O3'  DG A  43      83.808  89.034 197.919  1.00  0.00    -0.279 OA
ATOM    892  C2'  DG A  43      86.106  89.614 197.286  1.00  0.00     0.199 C 
ATOM    893  P    DA A  44      83.251  89.640 199.302  1.00  0.00     0.408 P 
ATOM    894  OP1  DA A  44      82.301  88.645 199.862  1.00  0.00    -0.624 OA
ATOM    895  OP2  DA A  44      82.796  91.033 199.062  1.00  0.00    -0.624 OA
ATOM    896  O5'  DA A  44      84.532  89.688 200.248  1.00  0.00    -0.287 OA
ATOM    897  C5'  DA A  44      85.151  88.489 200.711  1.00  0.00     0.216 C 
ATOM    898  C4'  DA A  44      86.435  88.813 201.441  1.00  0.00     0.180 C 
ATOM    899  C3'  DA A  44      86.296  89.770 202.617  1.00  0.00     0.198 C 
ATOM    900  O4'  DA A  44      87.340  89.483 200.520  1.00  0.00    -0.353 OA
ATOM    901  O3'  DA A  44      85.981  89.074 203.821  1.00  0.00    -0.279 OA
ATOM    902  C2'  DA A  44      87.666  90.434 202.673  1.00  0.00     0.199 C 
ATOM    903  P    DG A  45      85.187  89.831 204.998  1.00  0.00     0.408 P 
ATOM    904  OP1  DG A  45      85.353  89.018 206.229  1.00  0.00    -0.624 OA
ATOM    905  OP2  DG A  45      83.822  90.150 204.507  1.00  0.00    -0.624 OA
ATOM    906  O5'  DG A  45      85.985  91.198 205.186  1.00  0.00    -0.287 OA
ATOM    907  C5'  DG A  45      87.057  91.299 206.121  1.00  0.00     0.216 C 
ATOM    908  C4'  DG A  45      87.826  92.578 205.894  1.00  0.00     0.180 C 
ATOM    909  O4'  DG A  45      87.382  93.570 206.860  1.00  0.00    -0.353 OA
ATOM    910  C3'  DG A  45      89.330  92.474 206.111  1.00  0.00     0.198 C 
ATOM    911  C1'  DG A  45      88.492  94.314 207.328  1.00  0.00     0.262 C 
ATOM    912  N9   DG A  45      88.635  94.073 208.761  1.00  0.00    -0.293 N 
ATOM    913  C2'  DG A  45      89.712  93.895 206.506  1.00  0.00     0.199 C 
ATOM    914  C8   DG A  45      88.317  94.938 209.780  1.00  0.00     0.214 A 
ATOM    915  C4   DG A  45      89.118  92.933 209.359  1.00  0.00     0.187 A 
ATOM    916  N7   DG A  45      88.555  94.448 210.965  1.00  0.00    -0.234 NA
ATOM    917  C5   DG A  45      89.063  93.179 210.715  1.00  0.00     0.173 A 
ATOM    918  C6   DG A  45      89.506  92.171 211.611  1.00  0.00     0.292 A 
ATOM    919  O6   DG A  45      89.546  92.197 212.845  1.00  0.00    -0.265 OA
ATOM    920  N1   DG A  45      89.943  91.040 210.931  1.00  0.00    -0.153 N 
ATOM    921  H1   DG A  45      90.276  90.268 211.488  1.00  0.00     0.187 HD
ATOM    922  C2   DG A  45      89.954  90.897 209.568  1.00  0.00     0.703 A 
ATOM    923  N2   DG A  45      90.413  89.733 209.101  1.00  0.00    -0.233 N 
ATOM    924  N3   DG A  45      89.548  91.824 208.723  1.00  0.00    -0.044 NA
ATOM    925  H22  DG A  45      90.731  89.014 209.733  1.00  0.00     0.174 HD
ATOM    926  H21  DG A  45      90.440  89.587 208.101  1.00  0.00     0.174 HD
ATOM    927  O2'  DG A  45      89.806  94.735 205.372  1.00  0.00    -0.388 OA
ATOM    928 2'HO  DG A  45      90.693  94.630 205.023  1.00  0.00     0.210 HD
ATOM    929  O3'  DG A  45      90.006  92.035 204.938  1.00  0.00    -0.279 OA
ATOM    930  P    DG A  46      91.415  91.270 205.071  1.00  0.00     0.408 P 
ATOM    931  OP2  DG A  46      91.160  89.916 205.628  1.00  0.00    -0.624 OA
ATOM    932  O5'  DG A  46      92.205  92.113 206.170  1.00  0.00    -0.287 OA
ATOM    933  OP1  DG A  46      92.124  91.409 203.774  1.00  0.00    -0.624 OA
ATOM    934  C5'  DG A  46      93.631  92.191 206.158  1.00  0.00     0.216 C 
ATOM    935  C4'  DG A  46      94.074  93.628 205.999  1.00  0.00     0.180 C 
ATOM    936  O4'  DG A  46      93.047  94.505 206.517  1.00  0.00    -0.353 OA
ATOM    937  C3'  DG A  46      95.317  94.016 206.788  1.00  0.00     0.198 C 
ATOM    938  C1'  DG A  46      93.638  95.711 206.953  1.00  0.00     0.262 C 
ATOM    939  N9   DG A  46      93.062  96.061 208.248  1.00  0.00    -0.293 N 
ATOM    940  C2'  DG A  46      95.160  95.525 206.988  1.00  0.00     0.199 C 
ATOM    941  C4   DG A  46      92.766  95.200 209.277  1.00  0.00     0.187 A 
ATOM    942  C8   DG A  46      92.710  97.315 208.681  1.00  0.00     0.214 A 
ATOM    943  C5   DG A  46      92.249  95.992 210.280  1.00  0.00     0.173 A 
ATOM    944  N3   DG A  46      92.955  93.865 209.274  1.00  0.00    -0.044 NA
ATOM    945  N7   DG A  46      92.220  97.325 209.891  1.00  0.00    -0.234 NA
ATOM    946  C6   DG A  46      91.845  95.380 211.496  1.00  0.00     0.292 A 
ATOM    947  N1   DG A  46      92.050  94.006 211.468  1.00  0.00    -0.153 N 
ATOM    948  O6   DG A  46      91.363  95.908 212.504  1.00  0.00    -0.265 OA
ATOM    949  H1   DG A  46      91.793  93.489 212.293  1.00  0.00     0.187 HD
ATOM    950  C2   DG A  46      92.575  93.310 210.409  1.00  0.00     0.703 A 
ATOM    951  N2   DG A  46      92.693  91.991 210.572  1.00  0.00    -0.233 N 
ATOM    952  H22  DG A  46      92.421  91.555 211.439  1.00  0.00     0.174 HD
ATOM    953  H21  DG A  46      93.074  91.442 209.814  1.00  0.00     0.174 HD
ATOM    954  O2'  DG A  46      95.721  96.244 205.906  1.00  0.00    -0.388 OA
ATOM    955 2'HO  DG A  46      95.207  96.032 205.123  1.00  0.00     0.210 HD
ATOM    956  O3'  DG A  46      96.509  93.704 206.070  1.00  0.00    -0.279 OA
ATOM    957  P    DT A  47      97.154  92.234 206.181  1.00  0.00     0.408 P 
ATOM    958  OP2  DT A  47      96.486  91.351 205.192  1.00  0.00    -0.624 OA
ATOM    959  O5'  DT A  47      96.746  91.736 207.640  1.00  0.00    -0.287 OA
ATOM    960  OP1  DT A  47      98.631  92.392 206.144  1.00  0.00    -0.624 OA
ATOM    961  C5'  DT A  47      97.428  92.211 208.800  1.00  0.00     0.216 C 
ATOM    962  C4'  DT A  47      96.899  91.521 210.035  1.00  0.00     0.180 C 
ATOM    963  O4'  DT A  47      95.450  91.427 209.939  1.00  0.00    -0.353 OA
ATOM    964  C3'  DT A  47      97.375  90.086 210.229  1.00  0.00     0.198 C 
ATOM    965  C1'  DT A  47      95.023  90.143 210.357  1.00  0.00     0.264 C 
ATOM    966  N1   DT A  47      94.484  89.431 209.188  1.00  0.00    -0.280 N 
ATOM    967  C2'  DT A  47      96.224  89.456 211.002  1.00  0.00     0.199 C 
ATOM    968  C2   DT A  47      93.306  88.724 209.346  1.00  0.00     0.331 A 
ATOM    969  C6   DT A  47      95.133  89.464 207.974  1.00  0.00     0.104 A 
ATOM    970  O2   DT A  47      92.695  88.677 210.400  1.00  0.00    -0.246 OA
ATOM    971  N3   DT A  47      92.866  88.073 208.222  1.00  0.00    -0.275 N 
ATOM    972  H3   DT A  47      92.009  87.547 208.303  1.00  0.00     0.173 HD
ATOM    973  C4   DT A  47      93.466  88.059 206.984  1.00  0.00     0.250 A 
ATOM    974  O4   DT A  47      92.962  87.399 206.076  1.00  0.00    -0.268 OA
ATOM    975  C5   DT A  47      94.672  88.818 206.899  1.00  0.00     0.092 A 
ATOM    976  O2'  DT A  47      96.266  89.814 212.370  1.00  0.00    -0.388 OA
ATOM    977 2'HO  DT A  47      97.161  90.100 212.556  1.00  0.00     0.210 HD
ATOM    978  O3'  DT A  47      98.608  90.040 210.943  1.00  0.00    -0.279 OA
ATOM    979  P    DC A  48      99.524  88.720 210.876  1.00  0.00     0.408 P 
ATOM    980  O5'  DC A  48      98.897  87.761 211.982  1.00  0.00    -0.287 OA
ATOM    981  OP1  DC A  48     100.888  89.105 211.321  1.00  0.00    -0.624 OA
ATOM    982  OP2  DC A  48      99.339  88.079 209.550  1.00  0.00    -0.624 OA
ATOM    983  C5'  DC A  48      98.843  88.155 213.352  1.00  0.00     0.216 C 
ATOM    984  C4'  DC A  48      98.035  87.162 214.152  1.00  0.00     0.180 C 
ATOM    985  O4'  DC A  48      96.663  87.167 213.669  1.00  0.00    -0.353 OA
ATOM    986  C3'  DC A  48      98.471  85.710 214.024  1.00  0.00     0.198 C 
ATOM    987  C1'  DC A  48      96.142  85.848 213.693  1.00  0.00     0.264 C 
ATOM    988  C2'  DC A  48      97.190  84.958 214.361  1.00  0.00     0.199 C 
ATOM    989  N1   DC A  48      95.819  85.450 212.313  1.00  0.00    -0.278 N 
ATOM    990  O2'  DC A  48      96.955  84.950 215.756  1.00  0.00    -0.388 OA
ATOM    991 2'HO  DC A  48      97.772  85.227 216.173  1.00  0.00     0.210 HD
ATOM    992  C2   DC A  48      94.795  84.523 212.099  1.00  0.00     0.352 A 
ATOM    993  C6   DC A  48      96.503  85.979 211.253  1.00  0.00     0.102 A 
ATOM    994  O2   DC A  48      94.196  84.053 213.075  1.00  0.00    -0.244 OA
ATOM    995  N3   DC A  48      94.486  84.160 210.834  1.00  0.00    -0.177 NA
ATOM    996  C4   DC A  48      95.156  84.685 209.807  1.00  0.00     0.128 A 
ATOM    997  C5   DC A  48      96.206  85.631 209.995  1.00  0.00     0.067 A 
ATOM    998  N4   DC A  48      94.814  84.299 208.578  1.00  0.00    -0.384 N 
ATOM    999  H41  DC A  48      95.296  84.675 207.774  1.00  0.00     0.157 HD
ATOM   1000  H42  DC A  48      94.068  83.630 208.452  1.00  0.00     0.157 HD
ATOM   1001  O3'  DC A  48      99.537  85.401 214.917  1.00  0.00    -0.279 OA
ATOM   1002  P    DA A  49     100.503  84.154 214.606  1.00  0.00     0.408 P 
ATOM   1003  O5'  DA A  49      99.535  82.891 214.675  1.00  0.00    -0.287 OA
ATOM   1004  OP1  DA A  49     101.474  84.057 215.726  1.00  0.00    -0.624 OA
ATOM   1005  OP2  DA A  49     101.002  84.284 213.213  1.00  0.00    -0.624 OA
ATOM   1006  C5'  DA A  49      98.812  82.585 215.867  1.00  0.00     0.216 C 
ATOM   1007  C4'  DA A  49      97.989  81.333 215.671  1.00  0.00     0.180 C 
ATOM   1008  O4'  DA A  49      96.799  81.652 214.905  1.00  0.00    -0.353 OA
ATOM   1009  C3'  DA A  49      98.648  80.231 214.858  1.00  0.00     0.198 C 
ATOM   1010  C1'  DA A  49      96.413  80.522 214.142  1.00  0.00     0.262 C 
ATOM   1011  C2'  DA A  49      97.449  79.420 214.378  1.00  0.00     0.199 C 
ATOM   1012  N9   DA A  49      96.301  80.927 212.741  1.00  0.00    -0.294 N 
ATOM   1013  O2'  DA A  49      96.968  78.561 215.396  1.00  0.00    -0.388 OA
ATOM   1014 2'HO  DA A  49      97.493  77.760 215.356  1.00  0.00     0.210 HD
ATOM   1015  C4   DA A  49      95.467  80.370 211.801  1.00  0.00     0.167 A 
ATOM   1016  C8   DA A  49      96.990  81.920 212.089  1.00  0.00     0.214 A 
ATOM   1017  N3   DA A  49      94.601  79.359 211.978  1.00  0.00    -0.222 NA
ATOM   1018  C5   DA A  49      95.702  81.066 210.629  1.00  0.00     0.149 A 
ATOM   1019  C2   DA A  49      93.961  79.085 210.843  1.00  0.00     0.237 A 
ATOM   1020  N1   DA A  49      94.081  79.665 209.641  1.00  0.00    -0.222 NA
ATOM   1021  C6   DA A  49      94.961  80.678 209.499  1.00  0.00     0.155 A 
ATOM   1022  N6   DA A  49      95.079  81.256 208.302  1.00  0.00    -0.382 N 
ATOM   1023  H62  DA A  49      94.516  80.936 207.525  1.00  0.00     0.157 HD
ATOM   1024  H61  DA A  49      95.731  82.015 208.173  1.00  0.00     0.157 HD
ATOM   1025  N7   DA A  49      96.667  82.044 210.824  1.00  0.00    -0.236 NA
ATOM   1026  O3'  DA A  49      99.551  79.463 215.650  1.00  0.00    -0.279 OA
ATOM   1027  P    DG A  50     100.904  78.889 214.994  1.00  0.00     0.408 P 
ATOM   1028  O5'  DG A  50     100.511  77.417 214.528  1.00  0.00    -0.287 OA
ATOM   1029  OP1  DG A  50     101.905  78.772 216.085  1.00  0.00    -0.624 OA
ATOM   1030  OP2  DG A  50     101.232  79.683 213.782  1.00  0.00    -0.624 OA
ATOM   1031  C5'  DG A  50     100.248  76.389 215.482  1.00  0.00     0.216 C 
ATOM   1032  C4'  DG A  50      99.304  75.364 214.897  1.00  0.00     0.180 C 
ATOM   1033  O4'  DG A  50      98.105  76.039 214.419  1.00  0.00    -0.353 OA
ATOM   1034  C3'  DG A  50      99.821  74.611 213.679  1.00  0.00     0.198 C 
ATOM   1035  C1'  DG A  50      97.685  75.456 213.197  1.00  0.00     0.262 C 
ATOM   1036  N9   DG A  50      97.841  76.444 212.135  1.00  0.00    -0.293 N 
ATOM   1037  C2'  DG A  50      98.529  74.201 212.987  1.00  0.00     0.199 C 
ATOM   1038  C4   DG A  50      97.022  76.616 211.046  1.00  0.00     0.187 A 
ATOM   1039  C8   DG A  50      98.836  77.384 212.022  1.00  0.00     0.214 A 
ATOM   1040  N3   DG A  50      95.916  75.896 210.763  1.00  0.00    -0.044 NA
ATOM   1041  C5   DG A  50      97.575  77.658 210.332  1.00  0.00     0.173 A 
ATOM   1042  C2   DG A  50      95.340  76.296 209.644  1.00  0.00     0.703 A 
ATOM   1043  N2   DG A  50      94.231  75.687 209.215  1.00  0.00    -0.233 N 
ATOM   1044  N1   DG A  50      95.808  77.322 208.863  1.00  0.00    -0.153 N 
ATOM   1045  H22  DG A  50      93.773  75.990 208.368  1.00  0.00     0.174 HD
ATOM   1046  H21  DG A  50      93.848  74.925 209.756  1.00  0.00     0.174 HD
ATOM   1047  H1   DG A  50      95.295  77.556 208.027  1.00  0.00     0.187 HD
ATOM   1048  C6   DG A  50      96.945  78.075 209.132  1.00  0.00     0.292 A 
ATOM   1049  O6   DG A  50      97.281  78.977 208.358  1.00  0.00    -0.265 OA
ATOM   1050  N7   DG A  50      98.719  78.132 210.959  1.00  0.00    -0.234 NA
ATOM   1051  O2'  DG A  50      97.910  73.116 213.655  1.00  0.00    -0.388 OA
ATOM   1052 2'HO  DG A  50      98.599  72.658 214.136  1.00  0.00     0.210 HD
ATOM   1053  O3'  DG A  50     100.627  73.494 214.046  1.00  0.00    -0.279 OA
ATOM   1054  P    DC A  51     101.778  72.979 213.046  1.00  0.00     0.408 P 
ATOM   1055  OP1  DC A  51     102.380  71.765 213.651  1.00  0.00    -0.624 OA
ATOM   1056  OP2  DC A  51     102.645  74.133 212.696  1.00  0.00    -0.624 OA
ATOM   1057  O5'  DC A  51     100.981  72.541 211.737  1.00  0.00    -0.287 OA
ATOM   1058  C5'  DC A  51     100.055  71.457 211.773  1.00  0.00     0.216 C 
ATOM   1059  C4'  DC A  51      99.175  71.475 210.544  1.00  0.00     0.180 C 
ATOM   1060  C3'  DC A  51      99.885  71.279 209.216  1.00  0.00     0.198 C 
ATOM   1061  O4'  DC A  51      98.565  72.781 210.393  1.00  0.00    -0.353 OA
ATOM   1062  C2'  DC A  51      98.871  71.842 208.225  1.00  0.00     0.199 C 
ATOM   1063  O3'  DC A  51     100.187  69.908 208.970  1.00  0.00    -0.279 OA
ATOM   1064  O2'  DC A  51      97.846  70.905 207.955  1.00  0.00    -0.388 OA
ATOM   1065  C1'  DC A  51      98.272  73.002 209.024  1.00  0.00     0.264 C 
ATOM   1066 2'HO  DC A  51      98.177  70.047 208.226  1.00  0.00     0.210 HD
ATOM   1067  N1   DC A  51      98.808  74.316 208.631  1.00  0.00    -0.278 N 
ATOM   1068  C6   DC A  51      99.640  75.017 209.460  1.00  0.00     0.102 A 
ATOM   1069  C2   DC A  51      98.454  74.838 207.385  1.00  0.00     0.352 A 
ATOM   1070  C5   DC A  51     100.130  76.211 209.099  1.00  0.00     0.067 A 
ATOM   1071  C4   DC A  51      99.754  76.714 207.821  1.00  0.00     0.128 A 
ATOM   1072  N4   DC A  51     100.207  77.894 207.403  1.00  0.00    -0.384 N 
ATOM   1073  N3   DC A  51      98.945  76.036 207.005  1.00  0.00    -0.177 NA
ATOM   1074  H42  DC A  51      99.928  78.248 206.499  1.00  0.00     0.157 HD
ATOM   1075  H41  DC A  51     100.821  78.438 207.993  1.00  0.00     0.157 HD
ATOM   1076  O2   DC A  51      97.693  74.187 206.655  1.00  0.00    -0.244 OA
ATOM   1077  P    DC A  52     101.368  69.520 207.948  1.00  0.00     0.408 P 
ATOM   1078  OP1  DC A  52     101.578  68.053 208.050  1.00  0.00    -0.624 OA
ATOM   1079  O5'  DC A  52     100.754  69.838 206.512  1.00  0.00    -0.287 OA
ATOM   1080  OP2  DC A  52     102.510  70.442 208.175  1.00  0.00    -0.624 OA
ATOM   1081  C5'  DC A  52      99.677  69.066 205.987  1.00  0.00     0.216 C 
ATOM   1082  C4'  DC A  52      99.546  69.295 204.499  1.00  0.00     0.180 C 
ATOM   1083  O4'  DC A  52      98.825  70.540 204.272  1.00  0.00    -0.353 OA
ATOM   1084  C3'  DC A  52     100.856  69.475 203.742  1.00  0.00     0.198 C 
ATOM   1085  C1'  DC A  52      99.425  71.252 203.201  1.00  0.00     0.264 C 
ATOM   1086  N1   DC A  52     100.049  72.471 203.745  1.00  0.00    -0.278 N 
ATOM   1087  C2'  DC A  52     100.417  70.298 202.540  1.00  0.00     0.199 C 
ATOM   1088  C2   DC A  52     100.229  73.572 202.904  1.00  0.00     0.352 A 
ATOM   1089  C6   DC A  52     100.447  72.527 205.052  1.00  0.00     0.102 A 
ATOM   1090  N3   DC A  52     100.794  74.696 203.400  1.00  0.00    -0.177 NA
ATOM   1091  O2   DC A  52      99.866  73.493 201.722  1.00  0.00    -0.244 OA
ATOM   1092  C4   DC A  52     101.172  74.744 204.678  1.00  0.00     0.128 A 
ATOM   1093  N4   DC A  52     101.715  75.876 205.124  1.00  0.00    -0.384 N 
ATOM   1094  C5   DC A  52     101.006  73.634 205.556  1.00  0.00     0.067 A 
ATOM   1095  H42  DC A  52     101.820  76.661 204.495  1.00  0.00     0.157 HD
ATOM   1096  H41  DC A  52     102.013  75.957 206.084  1.00  0.00     0.157 HD
ATOM   1097  O2'  DC A  52      99.724  69.501 201.597  1.00  0.00    -0.388 OA
ATOM   1098 2'HO  DC A  52      99.983  68.593 201.761  1.00  0.00     0.210 HD
ATOM   1099  O3'  DC A  52     101.435  68.228 203.369  1.00  0.00    -0.279 OA
ATOM   1100  P    DC A  53     103.015  68.136 203.084  1.00  0.00     0.408 P 
ATOM   1101  OP2  DC A  53     103.733  68.822 204.190  1.00  0.00    -0.624 OA
ATOM   1102  OP1  DC A  53     103.329  66.718 202.773  1.00  0.00    -0.624 OA
ATOM   1103  O5'  DC A  53     103.218  68.995 201.756  1.00  0.00    -0.287 OA
ATOM   1104  C5'  DC A  53     102.627  68.585 200.524  1.00  0.00     0.216 C 
ATOM   1105  C4'  DC A  53     102.826  69.647 199.467  1.00  0.00     0.180 C 
ATOM   1106  O4'  DC A  53     102.148  70.868 199.871  1.00  0.00    -0.353 OA
ATOM   1107  C3'  DC A  53     104.258  70.103 199.239  1.00  0.00     0.198 C 
ATOM   1108  C1'  DC A  53     102.858  71.990 199.369  1.00  0.00     0.264 C 
ATOM   1109  N1   DC A  53     103.245  72.847 200.502  1.00  0.00    -0.278 N 
ATOM   1110  C2'  DC A  53     104.054  71.459 198.578  1.00  0.00     0.199 C 
ATOM   1111  C6   DC A  53     103.304  72.347 201.774  1.00  0.00     0.102 A 
ATOM   1112  C2   DC A  53     103.557  74.186 200.258  1.00  0.00     0.352 A 
ATOM   1113  C5   DC A  53     103.654  73.124 202.807  1.00  0.00     0.067 A 
ATOM   1114  C4   DC A  53     103.969  74.485 202.525  1.00  0.00     0.128 A 
ATOM   1115  N3   DC A  53     103.917  74.981 201.289  1.00  0.00    -0.177 NA
ATOM   1116  N4   DC A  53     104.325  75.309 203.510  1.00  0.00    -0.384 N 
ATOM   1117  H41  DC A  53     104.377  74.975 204.462  1.00  0.00     0.157 HD
ATOM   1118  H42  DC A  53     104.544  76.273 203.299  1.00  0.00     0.157 HD
ATOM   1119  O2   DC A  53     103.497  74.615 199.097  1.00  0.00    -0.244 OA
ATOM   1120  O2'  DC A  53     103.673  71.316 197.222  1.00  0.00    -0.388 OA
ATOM   1121 2'HO  DC A  53     103.959  70.445 196.944  1.00  0.00     0.210 HD
ATOM   1122  O3'  DC A  53     104.985  69.197 198.415  1.00  0.00    -0.279 OA
ATOM   1123  P    DC A  54     106.592  69.164 198.491  1.00  0.00     0.408 P 
ATOM   1124  OP2  DC A  54     106.995  69.143 199.920  1.00  0.00    -0.624 OA
ATOM   1125  O5'  DC A  54     107.036  70.565 197.873  1.00  0.00    -0.287 OA
ATOM   1126  OP1  DC A  54     107.058  68.086 197.581  1.00  0.00    -0.624 OA
ATOM   1127  C5'  DC A  54     106.797  70.869 196.501  1.00  0.00     0.216 C 
ATOM   1128  C4'  DC A  54     107.263  72.273 196.186  1.00  0.00     0.180 C 
ATOM   1129  O4'  DC A  54     106.463  73.224 196.937  1.00  0.00    -0.353 OA
ATOM   1130  C3'  DC A  54     108.692  72.601 196.589  1.00  0.00     0.198 C 
ATOM   1131  C1'  DC A  54     107.258  74.345 197.285  1.00  0.00     0.264 C 
ATOM   1132  N1   DC A  54     107.246  74.490 198.749  1.00  0.00    -0.278 N 
ATOM   1133  C2'  DC A  54     108.656  74.120 196.706  1.00  0.00     0.199 C 
ATOM   1134  C6   DC A  54     106.991  73.419 199.560  1.00  0.00     0.102 A 
ATOM   1135  C2   DC A  54     107.502  75.746 199.303  1.00  0.00     0.352 A 
ATOM   1136  C5   DC A  54     106.976  73.549 200.892  1.00  0.00     0.067 A 
ATOM   1137  C4   DC A  54     107.240  74.843 201.428  1.00  0.00     0.128 A 
ATOM   1138  N4   DC A  54     107.239  75.036 202.746  1.00  0.00    -0.384 N 
ATOM   1139  N3   DC A  54     107.495  75.892 200.646  1.00  0.00    -0.177 NA
ATOM   1140  H41  DC A  54     107.051  74.271 203.377  1.00  0.00     0.157 HD
ATOM   1141  H42  DC A  54     107.424  75.962 203.110  1.00  0.00     0.157 HD
ATOM   1142  O2   DC A  54     107.730  76.703 198.548  1.00  0.00    -0.244 OA
ATOM   1143  O2'  DC A  54     108.720  74.732 195.431  1.00  0.00    -0.388 OA
ATOM   1144 2'HO  DC A  54     108.716  74.027 194.783  1.00  0.00     0.210 HD
ATOM   1145  O3'  DC A  54     109.632  72.152 195.617  1.00  0.00    -0.279 OA
ATOM   1146  P    DC A  55     111.169  71.926 196.033  1.00  0.00     0.408 P 
ATOM   1147  OP2  DC A  55     111.206  71.193 197.324  1.00  0.00    -0.624 OA
ATOM   1148  OP1  DC A  55     111.874  71.368 194.851  1.00  0.00    -0.624 OA
ATOM   1149  O5'  DC A  55     111.723  73.400 196.287  1.00  0.00    -0.287 OA
ATOM   1150  C5'  DC A  55     111.729  74.373 195.243  1.00  0.00     0.216 C 
ATOM   1151  C4'  DC A  55     112.329  75.668 195.739  1.00  0.00     0.180 C 
ATOM   1152  C3'  DC A  55     113.568  75.526 196.610  1.00  0.00     0.182 C 
ATOM   1153  O4'  DC A  55     111.367  76.336 196.596  1.00  0.00    -0.353 OA
ATOM   1154  C2'  DC A  55     113.551  76.815 197.422  1.00  0.00     0.198 C 
ATOM   1155  O3'  DC A  55     114.763  75.384 195.834  1.00  0.00    -0.390 OA
ATOM   1156  C1'  DC A  55     112.049  77.027 197.627  1.00  0.00     0.264 C 
ATOM   1157  O2'  DC A  55     114.063  77.901 196.671  1.00  0.00    -0.388 OA
ATOM   1158  N1   DC A  55     111.553  76.534 198.922  1.00  0.00    -0.278 N 
ATOM   1159  C2   DC A  55     111.426  77.436 199.983  1.00  0.00     0.352 A 
ATOM   1160  C6   DC A  55     111.221  75.219 199.092  1.00  0.00     0.102 A 
ATOM   1161  N3   DC A  55     110.968  76.994 201.174  1.00  0.00    -0.177 NA
ATOM   1162  O2   DC A  55     111.738  78.622 199.803  1.00  0.00    -0.244 OA
ATOM   1163  C4   DC A  55     110.645  75.709 201.330  1.00  0.00     0.128 A 
ATOM   1164  N4   DC A  55     110.198  75.322 202.523  1.00  0.00    -0.384 N 
ATOM   1165  C5   DC A  55     110.767  74.767 200.267  1.00  0.00     0.067 A 
ATOM   1166  H41  DC A  55     109.943  74.359 202.685  1.00  0.00     0.157 HD
ATOM   1167  H42  DC A  55     110.113  76.004 203.264  1.00  0.00     0.157 HD
ATOM   1168 2'HO  DC A  55     114.710  77.539 196.064  1.00  0.00     0.210 HD
ATOM   1169 3'HO  DC A  55     114.606  74.680 195.200  1.00  0.00     0.210 HD
ATOM   1170  O2'  DA A  44      88.617  89.594 203.302  1.00  0.00    -0.388 OA
ATOM   1171  C1'  DA A  44      88.010  90.536 201.188  1.00  0.00     0.262 C 
ATOM   1172 2'HO  DA A  44      88.123  88.930 203.785  1.00  0.00     0.210 HD
ATOM   1173  N9   DA A  44      87.605  91.800 200.574  1.00  0.00    -0.294 N 
ATOM   1174  C4   DA A  44      88.311  92.978 200.596  1.00  0.00     0.167 A 
ATOM   1175  C8   DA A  44      86.459  92.063 199.863  1.00  0.00     0.214 A 
ATOM   1176  N3   DA A  44      89.500  93.205 201.181  1.00  0.00    -0.222 NA
ATOM   1177  C5   DA A  44      87.548  93.888 199.887  1.00  0.00     0.149 A 
ATOM   1178  C2   DA A  44      89.880  94.467 200.995  1.00  0.00     0.237 A 
ATOM   1179  N1   DA A  44      89.255  95.452 200.336  1.00  0.00    -0.222 NA
ATOM   1180  C6   DA A  44      88.063  95.188 199.758  1.00  0.00     0.155 A 
ATOM   1181  N6   DA A  44      87.445  96.168 199.099  1.00  0.00    -0.382 N 
ATOM   1182  H61  DA A  44      86.553  95.994 198.657  1.00  0.00     0.157 HD
ATOM   1183  H62  DA A  44      87.869  97.082 199.035  1.00  0.00     0.157 HD
ATOM   1184  N7   DA A  44      86.378  93.297 199.428  1.00  0.00    -0.236 NA
ATOM   1185  O2'  DG A  43      86.394  88.236 197.447  1.00  0.00    -0.388 OA
ATOM   1186  C1'  DG A  43      86.679  90.080 195.947  1.00  0.00     0.262 C 
ATOM   1187 2'HO  DG A  43      85.668  87.861 197.946  1.00  0.00     0.210 HD
ATOM   1188  N9   DG A  43      87.091  91.481 195.943  1.00  0.00    -0.293 N 
ATOM   1189  C4   DG A  43      88.159  92.021 196.618  1.00  0.00     0.187 A 
ATOM   1190  C8   DG A  43      86.496  92.519 195.268  1.00  0.00     0.214 A 
ATOM   1191  N3   DG A  43      89.018  91.349 197.413  1.00  0.00    -0.044 NA
ATOM   1192  C5   DG A  43      88.148  93.364 196.305  1.00  0.00     0.173 A 
ATOM   1193  C2   DG A  43      89.942  92.144 197.923  1.00  0.00     0.703 A 
ATOM   1194  N1   DG A  43      90.020  93.490 197.675  1.00  0.00    -0.153 N 
ATOM   1195  N2   DG A  43      90.875  91.642 198.737  1.00  0.00    -0.233 N 
ATOM   1196  H1   DG A  43      90.767  94.003 198.118  1.00  0.00     0.187 HD
ATOM   1197  C6   DG A  43      89.149  94.204 196.861  1.00  0.00     0.292 A 
ATOM   1198  O6   DG A  43      89.312  95.418 196.703  1.00  0.00    -0.265 OA
ATOM   1199  H21  DG A  43      90.863  90.656 198.954  1.00  0.00     0.174 HD
ATOM   1200  H22  DG A  43      91.585  92.242 199.132  1.00  0.00     0.174 HD
ATOM   1201  N7   DG A  43      87.094  93.663 195.452  1.00  0.00    -0.234 NA
ATOM   1202  O2'  DA A  42      84.426  90.293 191.521  1.00  0.00    -0.388 OA
ATOM   1203  C1'  DA A  42      85.701  92.165 190.747  1.00  0.00     0.262 C 
ATOM   1204 2'HO  DA A  42      83.570  90.191 191.939  1.00  0.00     0.210 HD
ATOM   1205  N9   DA A  42      86.676  93.178 191.152  1.00  0.00    -0.294 N 
ATOM   1206  C4   DA A  42      87.759  92.990 191.978  1.00  0.00     0.167 A 
ATOM   1207  C8   DA A  42      86.702  94.505 190.797  1.00  0.00     0.214 A 
ATOM   1208  N3   DA A  42      88.144  91.848 192.573  1.00  0.00    -0.222 NA
ATOM   1209  C5   DA A  42      88.376  94.225 192.076  1.00  0.00     0.149 A 
ATOM   1210  C2   DA A  42      89.238  92.047 193.305  1.00  0.00     0.237 A 
ATOM   1211  N1   DA A  42      89.940  93.173 193.494  1.00  0.00    -0.222 NA
ATOM   1212  C6   DA A  42      89.525  94.302 192.881  1.00  0.00     0.155 A 
ATOM   1213  N6   DA A  42      90.222  95.423 193.068  1.00  0.00    -0.382 N 
ATOM   1214  H61  DA A  42      89.925  96.276 192.616  1.00  0.00     0.157 HD
ATOM   1215  H62  DA A  42      91.041  95.424 193.660  1.00  0.00     0.157 HD
ATOM   1216  N7   DA A  42      87.698  95.174 191.324  1.00  0.00    -0.236 NA
ATOM   1217  O2'  DA A  41      84.308  93.373 186.780  1.00  0.00    -0.388 OA
ATOM   1218  C1'  DA A  41      86.395  94.501 186.468  1.00  0.00     0.262 C 
ATOM   1219 2'HO  DA A  41      83.770  93.082 187.516  1.00  0.00     0.210 HD
ATOM   1220  N9   DA A  41      87.522  95.024 187.242  1.00  0.00    -0.294 N 
ATOM   1221  C8   DA A  41      87.914  96.333 187.377  1.00  0.00     0.214 A 
ATOM   1222  C4   DA A  41      88.412  94.286 187.985  1.00  0.00     0.167 A 
ATOM   1223  N7   DA A  41      88.972  96.491 188.135  1.00  0.00    -0.236 NA
ATOM   1224  C5   DA A  41      89.298  95.200 188.526  1.00  0.00     0.149 A 
ATOM   1225  C6   DA A  41      90.324  94.688 189.341  1.00  0.00     0.155 A 
ATOM   1226  N6   DA A  41      91.251  95.445 189.927  1.00  0.00    -0.382 N 
ATOM   1227  N1   DA A  41      90.367  93.352 189.531  1.00  0.00    -0.222 NA
ATOM   1228  H61  DA A  41      91.238  96.445 189.794  1.00  0.00     0.157 HD
ATOM   1229  H62  DA A  41      91.965  95.019 190.502  1.00  0.00     0.157 HD
ATOM   1230  C2   DA A  41      89.437  92.590 188.939  1.00  0.00     0.237 A 
ATOM   1231  N3   DA A  41      88.427  92.953 188.153  1.00  0.00    -0.222 NA
ATOM   1232  C1'  DT A  39      94.234 102.039 183.301  1.00  0.00     0.264 C 
ATOM   1233  O2'  DT A  39      92.148 102.687 182.320  1.00  0.00    -0.388 OA
ATOM   1234  N1   DT A  39      94.869 100.973 184.090  1.00  0.00    -0.280 N 
ATOM   1235  C2   DT A  39      94.598  99.662 183.738  1.00  0.00     0.331 A 
ATOM   1236  C6   DT A  39      95.701 101.265 185.147  1.00  0.00     0.104 A 
ATOM   1237  O2   DT A  39      93.874  99.362 182.807  1.00  0.00    -0.246 OA
ATOM   1238  N3   DT A  39      95.210  98.715 184.518  1.00  0.00    -0.275 N 
ATOM   1239  C4   DT A  39      96.048  98.935 185.586  1.00  0.00     0.250 A 
ATOM   1240  H3   DT A  39      95.017  97.751 184.286  1.00  0.00     0.173 HD
ATOM   1241  O4   DT A  39      96.523  97.975 186.191  1.00  0.00    -0.268 OA
ATOM   1242  C5   DT A  39      96.281 100.314 185.885  1.00  0.00     0.092 A 
ATOM   1243 2'HO  DT A  39      91.451 103.273 182.615  1.00  0.00     0.210 HD
ATOM   1244  O2'  DA A  37     103.940 106.441 184.584  1.00  0.00    -0.388 OA
ATOM   1245  C1'  DA A  37     104.186 104.136 183.992  1.00  0.00     0.262 C 
ATOM   1246 2'HO  DA A  37     104.010 106.810 185.465  1.00  0.00     0.210 HD
ATOM   1247  N9   DA A  37     103.434 102.966 183.541  1.00  0.00    -0.294 N 
ATOM   1248  C8   DA A  37     103.510 101.677 184.007  1.00  0.00     0.214 A 
ATOM   1249  C4   DA A  37     102.489 102.949 182.544  1.00  0.00     0.167 A 
ATOM   1250  N7   DA A  37     102.699 100.847 183.400  1.00  0.00    -0.236 NA
ATOM   1251  C5   DA A  37     102.045 101.642 182.469  1.00  0.00     0.149 A 
ATOM   1252  C6   DA A  37     101.058 101.360 181.510  1.00  0.00     0.155 A 
ATOM   1253  N1   DA A  37     100.618 102.380 180.742  1.00  0.00    -0.222 NA
ATOM   1254  N6   DA A  37     100.536 100.150 181.316  1.00  0.00    -0.382 N 
ATOM   1255  C2   DA A  37     101.144 103.596 180.929  1.00  0.00     0.237 A 
ATOM   1256  N3   DA A  37     102.077 103.986 181.795  1.00  0.00    -0.222 NA
ATOM   1257  H62  DA A  37      99.840 100.014 180.598  1.00  0.00     0.157 HD
ATOM   1258  H61  DA A  37     100.847  99.369 181.878  1.00  0.00     0.157 HD
ATOM   1259  O2'  DC A  36     107.357 100.926 188.631  1.00  0.00    -0.388 OA
ATOM   1260  C1'  DC A  36     107.030  98.977 189.979  1.00  0.00     0.264 C 
ATOM   1261 2'HO  DC A  36     106.659 101.515 188.921  1.00  0.00     0.210 HD
ATOM   1262  N1   DC A  36     108.318  98.283 190.123  1.00  0.00    -0.278 N 
ATOM   1263  C2   DC A  36     109.245  98.761 191.054  1.00  0.00     0.352 A 
ATOM   1264  C6   DC A  36     108.609  97.185 189.361  1.00  0.00     0.102 A 
ATOM   1265  O2   DC A  36     108.956  99.757 191.734  1.00  0.00    -0.244 OA
ATOM   1266  N3   DC A  36     110.432  98.129 191.189  1.00  0.00    -0.177 NA
ATOM   1267  C4   DC A  36     110.707  97.062 190.438  1.00  0.00     0.128 A 
ATOM   1268  C5   DC A  36     109.782  96.550 189.484  1.00  0.00     0.067 A 
ATOM   1269  N4   DC A  36     111.892  96.477 190.603  1.00  0.00    -0.384 N 
ATOM   1270  H42  DC A  36     112.535  96.850 191.286  1.00  0.00     0.157 HD
ATOM   1271  H41  DC A  36     112.145  95.668 190.053  1.00  0.00     0.157 HD
ATOM   1272  C1'  DA A  32      96.080  95.155 179.344  1.00  0.00     0.262 C 
ATOM   1273  O2'  DA A  32      96.170  96.391 177.297  1.00  0.00    -0.388 OA
ATOM   1274  N9   DA A  32      96.811  95.237 180.609  1.00  0.00    -0.294 N 
ATOM   1275  C4   DA A  32      97.201  96.395 181.237  1.00  0.00     0.167 A 
ATOM   1276  C8   DA A  32      97.251  94.210 181.407  1.00  0.00     0.214 A 
ATOM   1277  N3   DA A  32      96.989  97.656 180.825  1.00  0.00    -0.222 NA
ATOM   1278  C5   DA A  32      97.858  95.998 182.386  1.00  0.00     0.149 A 
ATOM   1279  C2   DA A  32      97.510  98.526 181.685  1.00  0.00     0.237 A 
ATOM   1280  N1   DA A  32      98.168  98.295 182.829  1.00  0.00    -0.222 NA
ATOM   1281  C6   DA A  32      98.363  97.016 183.216  1.00  0.00     0.155 A 
ATOM   1282  N6   DA A  32      99.016  96.790 184.355  1.00  0.00    -0.382 N 
ATOM   1283  H61  DA A  32      99.174  95.842 184.665  1.00  0.00     0.157 HD
ATOM   1284  H62  DA A  32      99.353  97.568 184.906  1.00  0.00     0.157 HD
ATOM   1285  N7   DA A  32      97.883  94.613 182.483  1.00  0.00    -0.236 NA
ATOM   1286 2'HO  DA A  32      96.159  95.995 176.426  1.00  0.00     0.210 HD
ENDBRANCH 698 701
ENDBRANCH 697 698
ENDBRANCH 657 697
ENDBRANCH 537 538
ENDBRANCH 536 537
ENDBRANCH 533 536
ENDBRANCH 532 533
ENDBRANCH 515 532
ENDBRANCH 510 511
ENDBRANCH 509 510
ENDBRANCH 506 509
ENDBRANCH 505 506
ENDBRANCH 490 505
ENDBRANCH 485 486
ENDBRANCH 484 485
ENDBRANCH 481 484
ENDBRANCH 480 481
ENDBRANCH 463 480
ENDBRANCH 458 459
ENDBRANCH 457 458
ENDBRANCH 454 457
ENDBRANCH 453 454
ENDBRANCH 438 453
ENDBRANCH 433 434
ENDBRANCH 432 433
ENDBRANCH 429 432
ENDBRANCH 428 429
ENDBRANCH 424 428
BRANCH 425 1287
ATOM   1287  O2'  DG A  20      72.310 105.270 197.913  1.00  0.00    -0.388 OA
ATOM   1288 2'HO  DG A  20      72.592 104.885 198.743  1.00  0.00     0.210 HD
ENDBRANCH 425 1287
BRANCH 426 1289
ATOM   1289  N9   DG A  20      70.703 102.670 195.905  1.00  0.00    -0.293 N 
ATOM   1290  C8   DG A  20      69.336 102.589 196.011  1.00  0.00     0.214 A 
ATOM   1291  N7   DG A  20      68.768 102.064 194.961  1.00  0.00    -0.234 NA
ATOM   1292  C5   DG A  20      69.827 101.776 194.108  1.00  0.00     0.173 A 
ATOM   1293  C6   DG A  20      69.834 101.194 192.812  1.00  0.00     0.292 A 
ATOM   1294  C4   DG A  20      71.027 102.141 194.679  1.00  0.00     0.187 A 
ATOM   1295  O6   DG A  20      68.876 100.805 192.134  1.00  0.00    -0.265 OA
ATOM   1296  N1   DG A  20      71.127 101.085 192.310  1.00  0.00    -0.153 N 
ATOM   1297  H1   DG A  20      71.233 100.685 191.391  1.00  0.00     0.187 HD
ATOM   1298  C2   DG A  20      72.263 101.480 192.967  1.00  0.00     0.703 A 
ATOM   1299  N3   DG A  20      72.271 102.024 194.170  1.00  0.00    -0.044 NA
BRANCH 1298 1300
ATOM   1300  N2   DG A  20      73.414 101.289 192.319  1.00  0.00    -0.233 N 
ATOM   1301  H22  DG A  20      73.801 100.360 192.230  1.00  0.00     0.174 HD
ATOM   1302  H21  DG A  20      73.886 102.081 191.905  1.00  0.00     0.174 HD
ENDBRANCH 1298 1300
ENDBRANCH 426 1289
ENDBRANCH 422 423
ENDBRANCH 421 422
ENDBRANCH 418 421
ENDBRANCH 417 418
ENDBRANCH 400 417
ENDBRANCH 395 396
ENDBRANCH 394 395
ENDBRANCH 391 394
ENDBRANCH 390 391
ENDBRANCH 373 390
ENDBRANCH 368 369
ENDBRANCH 367 368
ENDBRANCH 364 367
ENDBRANCH 363 364
ENDBRANCH 359 363
BRANCH 360 1303
ATOM   1303  O2'  DT A  17      66.848 102.856 192.829  1.00  0.00    -0.388 OA
ATOM   1304 2'HO  DT A  17      65.970 102.583 193.097  1.00  0.00     0.210 HD
ENDBRANCH 360 1303
BRANCH 361 1305
ATOM   1305  N1   DT A  17      69.227 104.973 192.491  1.00  0.00    -0.280 N 
ATOM   1306  C2   DT A  17      70.427 104.594 191.919  1.00  0.00     0.331 A 
ATOM   1307  N3   DT A  17      71.544 104.915 192.648  1.00  0.00    -0.275 N 
ATOM   1308  O2   DT A  17      70.499 104.020 190.847  1.00  0.00    -0.246 OA
ATOM   1309  H3   DT A  17      72.430 104.650 192.249  1.00  0.00     0.173 HD
ATOM   1310  C4   DT A  17      71.582 105.557 193.864  1.00  0.00     0.250 A 
ATOM   1311  O4   DT A  17      72.670 105.776 194.397  1.00  0.00    -0.268 OA
ATOM   1312  C5   DT A  17      70.302 105.914 194.390  1.00  0.00     0.092 A 
ATOM   1313  C6   DT A  17      69.192 105.620 193.706  1.00  0.00     0.104 A 
ENDBRANCH 361 1305
ENDBRANCH 357 358
ENDBRANCH 356 357
ENDBRANCH 353 356
ENDBRANCH 352 353
ENDBRANCH 348 352
BRANCH 349 1314
ATOM   1314  O2'  DT A  16      63.690 109.966 191.871  1.00  0.00    -0.388 OA
ATOM   1315 2'HO  DT A  16      63.904 109.086 192.182  1.00  0.00     0.210 HD
ENDBRANCH 349 1314
BRANCH 350 1316
ATOM   1316  N1   DT A  16      65.588 112.655 190.306  1.00  0.00    -0.280 N 
ATOM   1317  C6   DT A  16      66.528 113.583 190.694  1.00  0.00     0.104 A 
ATOM   1318  C5   DT A  16      67.406 114.111 189.838  1.00  0.00     0.092 A 
ATOM   1319  C4   DT A  16      67.390 113.720 188.464  1.00  0.00     0.250 A 
ATOM   1320  O4   DT A  16      68.152 114.123 187.588  1.00  0.00    -0.268 OA
ATOM   1321  N3   DT A  16      66.422 112.796 188.144  1.00  0.00    -0.275 N 
ATOM   1322  H3   DT A  16      66.379 112.508 187.177  1.00  0.00     0.173 HD
ATOM   1323  C2   DT A  16      65.506 112.231 188.992  1.00  0.00     0.331 A 
ATOM   1324  O2   DT A  16      64.686 111.416 188.608  1.00  0.00    -0.246 OA
ENDBRANCH 350 1316
ENDBRANCH 346 347
ENDBRANCH 345 346
ENDBRANCH 342 345
ENDBRANCH 341 342
ENDBRANCH 337 341
BRANCH 338 1325
ATOM   1325  O2'  DG A  15      65.079 109.267 196.437  1.00  0.00    -0.388 OA
ATOM   1326 2'HO  DG A  15      65.759 109.933 196.334  1.00  0.00     0.210 HD
ENDBRANCH 338 1325
BRANCH 339 1327
ATOM   1327  N9   DG A  15      61.671 109.102 197.662  1.00  0.00    -0.293 N 
ATOM   1328  C4   DG A  15      60.673 108.301 198.159  1.00  0.00     0.187 A 
ATOM   1329  C5   DG A  15      59.509 109.021 197.997  1.00  0.00     0.173 A 
ATOM   1330  N3   DG A  15      60.835 107.071 198.690  1.00  0.00    -0.044 NA
ATOM   1331  N7   DG A  15      59.769 110.252 197.409  1.00  0.00    -0.234 NA
ATOM   1332  C6   DG A  15      58.284 108.445 198.425  1.00  0.00     0.292 A 
ATOM   1333  C8   DG A  15      61.062 110.254 197.230  1.00  0.00     0.214 A 
ATOM   1334  O6   DG A  15      57.145 108.921 198.369  1.00  0.00    -0.265 OA
ATOM   1335  N1   DG A  15      58.476 107.178 198.966  1.00  0.00    -0.153 N 
ATOM   1336  H1   DG A  15      57.658 106.691 199.296  1.00  0.00     0.187 HD
ATOM   1337  C2   DG A  15      59.688 106.548 199.081  1.00  0.00     0.703 A 
BRANCH 1337 1338
ATOM   1338  N2   DG A  15      59.670 105.329 199.629  1.00  0.00    -0.233 N 
ATOM   1339  H22  DG A  15      58.800 104.836 199.761  1.00  0.00     0.174 HD
ATOM   1340  H21  DG A  15      60.542 104.904 199.910  1.00  0.00     0.174 HD
ENDBRANCH 1337 1338
ENDBRANCH 339 1327
ENDBRANCH 335 336
ENDBRANCH 334 335
ENDBRANCH 331 334
ENDBRANCH 330 331
ENDBRANCH 326 330
BRANCH 327 1341
ATOM   1341  O2'  DA A  14      67.656 107.221 203.896  1.00  0.00    -0.388 OA
ATOM   1342 2'HO  DA A  14      68.606 107.208 204.015  1.00  0.00     0.210 HD
ENDBRANCH 327 1341
BRANCH 328 1343
ATOM   1343  N9   DA A  14      67.926 108.259 207.397  1.00  0.00    -0.294 N 
ATOM   1344  C8   DA A  14      67.126 107.376 208.079  1.00  0.00     0.214 A 
ATOM   1345  N7   DA A  14      67.027 107.634 209.361  1.00  0.00    -0.236 NA
ATOM   1346  C5   DA A  14      67.817 108.763 209.534  1.00  0.00     0.149 A 
ATOM   1347  C4   DA A  14      68.376 109.159 208.333  1.00  0.00     0.167 A 
ATOM   1348  C6   DA A  14      68.129 109.536 210.668  1.00  0.00     0.155 A 
ATOM   1349  N3   DA A  14      69.191 110.207 208.131  1.00  0.00    -0.222 NA
ATOM   1350  C2   DA A  14      69.413 110.857 209.271  1.00  0.00     0.237 A 
ATOM   1351  N1   DA A  14      68.947 110.596 210.499  1.00  0.00    -0.222 NA
BRANCH 1348 1352
ATOM   1352  N6   DA A  14      67.664 109.279 211.890  1.00  0.00    -0.382 N 
ATOM   1353  H61  DA A  14      68.219 109.512 212.701  1.00  0.00     0.157 HD
ATOM   1354  H62  DA A  14      66.760 108.845 211.999  1.00  0.00     0.157 HD
ENDBRANCH 1348 1352
ENDBRANCH 328 1343
ENDBRANCH 324 325
ENDBRANCH 323 324
ENDBRANCH 320 323
ENDBRANCH 319 320
ENDBRANCH 318 319
BRANCH 317 1355
ATOM   1355  O2'  DC A  13      71.472 112.612 202.742  1.00  0.00    -0.388 OA
ATOM   1356 2'HO  DC A  13      71.130 111.763 202.460  1.00  0.00     0.210 HD
ENDBRANCH 317 1355
BRANCH 315 1357
ATOM   1357  N4   DC A  13      72.945 111.272 209.984  1.00  0.00    -0.384 N 
ATOM   1358  H41  DC A  13      73.280 111.861 210.733  1.00  0.00     0.157 HD
ATOM   1359  H42  DC A  13      72.681 110.314 210.170  1.00  0.00     0.157 HD
ENDBRANCH 315 1357
TORSDOF 427
ENDMDL
MODEL 8
REMARK VINA RESULT:      -6.3      6.459     20.962
REMARK WARNING: 32 MAX_TORS EXCEEDED!!!
REMARK  99 active torsions:
REMARK  status: ('A' for Active; 'I' for Inactive)
REMARK       I    between atoms: O5'_2  and  C5'_3 
REMARK       I    between atoms: C5'_3  and  C4'_4 
REMARK       I    between atoms: C1'_6  and  N9_7 
REMARK       I    between atoms: C2_10  and  N2_11 
REMARK       I    between atoms: C2'_21  and  O2'_22 
REMARK       I    between atoms: C3'_24  and  O3'_25 
REMARK       I    between atoms: O3'_25  and  P_26 
REMARK       I    between atoms: P_26  and  O5'_29 
REMARK       I    between atoms: O5'_29  and  C5'_30 
REMARK       I    between atoms: C5'_30  and  C4'_31 
REMARK       I    between atoms: C1'_33  and  N9_34 
REMARK       I    between atoms: C2_37  and  N2_38 
REMARK       I    between atoms: C2'_48  and  O2'_49 
REMARK       I    between atoms: C3'_51  and  O3'_52 
REMARK       I    between atoms: O3'_52  and  P_53 
REMARK       I    between atoms: P_53  and  O5'_56 
REMARK       I    between atoms: O5'_56  and  C5'_57 
REMARK       I    between atoms: C5'_57  and  C4'_58 
REMARK       I    between atoms: C1'_60  and  N9_61 
REMARK       I    between atoms: C2_64  and  N2_65 
REMARK       I    between atoms: C2'_75  and  O2'_76 
REMARK       I    between atoms: C3'_78  and  O3'_79 
REMARK       I    between atoms: O3'_79  and  P_80 
REMARK       I    between atoms: P_80  and  O5'_83 
REMARK       I    between atoms: O5'_83  and  C5'_84 
REMARK       I    between atoms: C5'_84  and  C4'_85 
REMARK       I    between atoms: C1'_87  and  N9_88 
REMARK       I    between atoms: C2_91  and  N2_92 
REMARK       I    between atoms: C2'_102  and  O2'_103 
REMARK       I    between atoms: C3'_105  and  O3'_106 
REMARK       I    between atoms: O3'_106  and  P_107 
REMARK       I    between atoms: P_107  and  O5'_110 
REMARK       I    between atoms: O5'_110  and  C5'_111 
REMARK       I    between atoms: C5'_111  and  C4'_112 
REMARK       I    between atoms: C1'_114  and  N9_115 
REMARK       I    between atoms: C2_118  and  N2_119 
REMARK       I    between atoms: C2'_129  and  O2'_130 
REMARK       I    between atoms: C3'_132  and  O3'_133 
REMARK       I    between atoms: O3'_133  and  P_134 
REMARK       I    between atoms: P_134  and  O5'_137 
REMARK       I    between atoms: O5'_137  and  C5'_138 
REMARK       I    between atoms: C5'_138  and  C4'_139 
REMARK       I    between atoms: C1'_141  and  N1_142 
REMARK       I    between atoms: C2'_151  and  O2'_152 
REMARK       I    between atoms: C3'_154  and  O3'_155 
REMARK       I    between atoms: O3'_155  and  P_156 
REMARK       I    between atoms: P_156  and  O5'_159 
REMARK       I    between atoms: O5'_159  and  C5'_160 
REMARK       I    between atoms: C5'_160  and  C4'_161 
REMARK       I    between atoms: C1'_163  and  N9_164 
REMARK       I    between atoms: C2_167  and  N2_168 
REMARK       I    between atoms: C2'_178  and  O2'_179 
REMARK       I    between atoms: C3'_181  and  O3'_182 
REMARK       I    between atoms: O3'_182  and  P_183 
REMARK       I    between atoms: P_183  and  O5'_186 
REMARK       I    between atoms: O5'_186  and  C5'_187 
REMARK       I    between atoms: C5'_187  and  C4'_188 
REMARK       I    between atoms: C1'_190  and  N1_191 
REMARK       I    between atoms: C2'_200  and  O2'_201 
REMARK       I    between atoms: C3'_203  and  O3'_204 
REMARK       I    between atoms: O3'_204  and  P_205 
REMARK       I    between atoms: P_205  and  O5'_208 
REMARK       I    between atoms: O5'_208  and  C5'_209 
REMARK       I    between atoms: C5'_209  and  C4'_210 
REMARK       I    between atoms: C1'_212  and  N9_213 
REMARK       I    between atoms: C6_218  and  N6_219 
REMARK       I    between atoms: C2'_225  and  O2'_226 
REMARK       I    between atoms: C3'_228  and  O3'_229 
REMARK       I    between atoms: O3'_229  and  P_230 
REMARK       I    between atoms: P_230  and  O5'_233 
REMARK       I    between atoms: O5'_233  and  C5'_234 
REMARK       I    between atoms: C5'_234  and  C4'_235 
REMARK       I    between atoms: C1'_237  and  N9_238 
REMARK       I    between atoms: C2_241  and  N2_242 
REMARK       I    between atoms: C2'_252  and  O2'_253 
REMARK       I    between atoms: C3'_255  and  O3'_256 
REMARK       I    between atoms: O3'_256  and  P_257 
REMARK       I    between atoms: P_257  and  O5'_260 
REMARK       I    between atoms: O5'_260  and  C5'_261 
REMARK       I    between atoms: C5'_261  and  C4'_262 
REMARK       I    between atoms: C1'_264  and  N1_265 
REMARK       I    between atoms: C4_270  and  N4_271 
REMARK       I    between atoms: C2'_275  and  O2'_276 
REMARK       I    between atoms: C3'_278  and  O3'_279 
REMARK       I    between atoms: O3'_279  and  P_280 
REMARK       I    between atoms: P_280  and  O5'_283 
REMARK       I    between atoms: O5'_283  and  C5'_284 
REMARK       I    between atoms: C5'_284  and  C4'_285 
REMARK       I    between atoms: C1'_287  and  N1_288 
REMARK       I    between atoms: C2'_297  and  O2'_298 
REMARK       I    between atoms: C3'_300  and  O3'_301 
REMARK       I    between atoms: O3'_301  and  P_302 
REMARK       I    between atoms: P_302  and  O5'_305 
REMARK       I    between atoms: O5'_305  and  C5'_306 
REMARK       I    between atoms: C5'_306  and  C4'_307 
REMARK       I    between atoms: C1'_309  and  N1_310 
REMARK    1  A    between atoms: C4_315  and  N4_316 
REMARK    2  A    between atoms: C2'_320  and  O2'_321 
REMARK    3  A    between atoms: C3'_323  and  O3'_324 
REMARK    4  A    between atoms: O3'_324  and  P_325 
REMARK    5  A    between atoms: P_325  and  O5'_328 
REMARK    6  A    between atoms: O5'_328  and  C5'_329 
REMARK    7  A    between atoms: C5'_329  and  C4'_330 
REMARK    8  A    between atoms: C1'_332  and  N9_333 
REMARK    9  A    between atoms: C6_338  and  N6_339 
REMARK   10  A    between atoms: C2'_345  and  O2'_346 
REMARK   11  A    between atoms: C3'_348  and  O3'_349 
REMARK   12  A    between atoms: O3'_349  and  P_350 
REMARK   13  A    between atoms: P_350  and  O5'_353 
REMARK   14  A    between atoms: O5'_353  and  C5'_354 
REMARK   15  A    between atoms: C5'_354  and  C4'_355 
REMARK   16  A    between atoms: C1'_357  and  N9_358 
REMARK   17  A    between atoms: C2_361  and  N2_362 
REMARK   18  A    between atoms: C2'_372  and  O2'_373 
REMARK   19  A    between atoms: C3'_375  and  O3'_376 
REMARK   20  A    between atoms: O3'_376  and  P_377 
REMARK   21  A    between atoms: P_377  and  O5'_380 
REMARK   22  A    between atoms: O5'_380  and  C5'_381 
REMARK   23  A    between atoms: C5'_381  and  C4'_382 
REMARK   24  A    between atoms: C1'_384  and  N1_385 
REMARK   25  A    between atoms: C2'_394  and  O2'_395 
REMARK   26  A    between atoms: C3'_397  and  O3'_398 
REMARK   27  A    between atoms: O3'_398  and  P_399 
REMARK   28  A    between atoms: P_399  and  O5'_402 
REMARK   29  A    between atoms: O5'_402  and  C5'_403 
REMARK   30  A    between atoms: C5'_403  and  C4'_404 
REMARK   31  A    between atoms: C1'_406  and  N1_407 
REMARK   32  A    between atoms: C2'_416  and  O2'_417 
REMARK   33  A    between atoms: C3'_419  and  O3'_420 
REMARK   34  A    between atoms: O3'_420  and  P_421 
REMARK   35  A    between atoms: P_421  and  O5'_424 
REMARK   36  A    between atoms: O5'_424  and  C5'_425 
REMARK   37  A    between atoms: C5'_425  and  C4'_426 
REMARK   38  A    between atoms: C1'_428  and  N9_429 
REMARK   39  A    between atoms: C2_432  and  N2_433 
REMARK   40  A    between atoms: C2'_443  and  O2'_444 
REMARK   41  A    between atoms: C3'_446  and  O3'_447 
REMARK   42  A    between atoms: O3'_447  and  P_448 
REMARK   43  A    between atoms: P_448  and  O5'_451 
REMARK   44  A    between atoms: O5'_451  and  C5'_452 
REMARK   45  A    between atoms: C5'_452  and  C4'_453 
REMARK   46  A    between atoms: C1'_455  and  N9_456 
REMARK   47  A    between atoms: C2_459  and  N2_460 
REMARK   48  A    between atoms: C2'_470  and  O2'_471 
REMARK   49  A    between atoms: C3'_473  and  O3'_474 
REMARK   50  A    between atoms: O3'_474  and  P_475 
REMARK   51  A    between atoms: P_475  and  O5'_478 
REMARK   52  A    between atoms: O5'_478  and  C5'_479 
REMARK   53  A    between atoms: C5'_479  and  C4'_480 
REMARK   54  A    between atoms: C1'_482  and  N9_483 
REMARK   55  A    between atoms: C2_486  and  N2_487 
REMARK   56  A    between atoms: C2'_497  and  O2'_498 
REMARK   57  A    between atoms: C3'_500  and  O3'_501 
REMARK   58  A    between atoms: O3'_501  and  P_502 
REMARK   59  A    between atoms: P_502  and  O5'_505 
REMARK   60  A    between atoms: O5'_505  and  C5'_506 
REMARK   61  A    between atoms: C5'_506  and  C4'_507 
REMARK   62  A    between atoms: C1'_509  and  N9_510 
REMARK   63  A    between atoms: C6_515  and  N6_516 
REMARK   64  A    between atoms: C2'_522  and  O2'_523 
REMARK   65  A    between atoms: C3'_525  and  O3'_526 
REMARK   66  A    between atoms: O3'_526  and  P_527 
REMARK   67  A    between atoms: P_527  and  O5'_530 
REMARK   68  A    between atoms: O5'_530  and  C5'_531 
REMARK   69  A    between atoms: C5'_531  and  C4'_532 
REMARK   70  A    between atoms: C1'_534  and  N9_535 
REMARK   71  A    between atoms: C2_538  and  N2_539 
REMARK   72  A    between atoms: C2'_549  and  O2'_550 
REMARK   73  A    between atoms: C3'_552  and  O3'_553 
REMARK   74  A    between atoms: O3'_553  and  P_554 
REMARK   75  A    between atoms: P_554  and  O5'_557 
REMARK   76  A    between atoms: O5'_557  and  C5'_558 
REMARK   77  A    between atoms: C5'_558  and  C4'_559 
REMARK   78  A    between atoms: C1'_561  and  N9_562 
REMARK   79  A    between atoms: C6_567  and  N6_568 
REMARK   80  A    between atoms: C2'_574  and  O2'_575 
REMARK   81  A    between atoms: C3'_577  and  O3'_578 
REMARK   82  A    between atoms: O3'_578  and  P_579 
REMARK   83  A    between atoms: P_579  and  O5'_582 
REMARK   84  A    between atoms: O5'_582  and  C5'_583 
REMARK   85  A    between atoms: C5'_583  and  C4'_584 
REMARK   86  A    between atoms: C1'_586  and  N9_587 
REMARK   87  A    between atoms: C2_590  and  N2_591 
REMARK   88  A    between atoms: C2'_601  and  O2'_602 
REMARK   89  A    between atoms: C3'_604  and  O3'_605 
REMARK   90  A    between atoms: O3'_605  and  P_606 
REMARK   91  A    between atoms: P_606  and  O5'_609 
REMARK   92  A    between atoms: O5'_609  and  C5'_610 
REMARK   93  A    between atoms: C5'_610  and  C4'_611 
REMARK   94  A    between atoms: C1'_613  and  N1_614 
REMARK       I    between atoms: C4_619  and  N4_620 
REMARK       I    between atoms: C2'_624  and  O2'_625 
REMARK       I    between atoms: C3'_627  and  O3'_628 
REMARK       I    between atoms: O3'_628  and  P_629 
REMARK       I    between atoms: P_629  and  O5'_632 
REMARK       I    between atoms: O5'_632  and  C5'_633 
REMARK       I    between atoms: C5'_633  and  C4'_634 
REMARK       I    between atoms: C1'_636  and  N9_637 
REMARK       I    between atoms: C2_640  and  N2_641 
REMARK       I    between atoms: C2'_651  and  O2'_652 
REMARK       I    between atoms: C3'_654  and  O3'_655 
REMARK       I    between atoms: O3'_655  and  P_656 
REMARK       I    between atoms: P_656  and  O5'_659 
REMARK       I    between atoms: O5'_659  and  C5'_660 
REMARK       I    between atoms: C5'_660  and  C4'_661 
REMARK       I    between atoms: C1'_663  and  N1_664 
REMARK       I    between atoms: C4_669  and  N4_670 
REMARK       I    between atoms: C2'_674  and  O2'_675 
REMARK       I    between atoms: C3'_677  and  O3'_678 
REMARK       I    between atoms: O3'_678  and  P_679 
REMARK       I    between atoms: P_679  and  O5'_682 
REMARK       I    between atoms: O5'_682  and  C5'_683 
REMARK       I    between atoms: C5'_683  and  C4'_684 
REMARK       I    between atoms: C1'_686  and  N1_687 
REMARK       I    between atoms: C2'_696  and  O2'_697 
REMARK       I    between atoms: C3'_699  and  O3'_700 
REMARK       I    between atoms: O3'_700  and  P_701 
REMARK       I    between atoms: P_701  and  O5'_704 
REMARK       I    between atoms: O5'_704  and  C5'_705 
REMARK       I    between atoms: C5'_705  and  C4'_706 
REMARK       I    between atoms: C1'_708  and  N1_709 
REMARK       I    between atoms: C2'_718  and  O2'_719 
REMARK       I    between atoms: C3'_721  and  O3'_722 
REMARK       I    between atoms: O3'_722  and  P_723 
REMARK       I    between atoms: P_723  and  O5'_726 
REMARK       I    between atoms: O5'_726  and  C5'_727 
REMARK       I    between atoms: C5'_727  and  C4'_728 
REMARK       I    between atoms: C1'_730  and  N1_731 
REMARK       I    between atoms: C4_736  and  N4_737 
REMARK       I    between atoms: C2'_741  and  O2'_742 
REMARK       I    between atoms: C3'_744  and  O3'_745 
REMARK       I    between atoms: O3'_745  and  P_746 
REMARK       I    between atoms: P_746  and  O5'_749 
REMARK       I    between atoms: O5'_749  and  C5'_750 
REMARK       I    between atoms: C5'_750  and  C4'_751 
REMARK       I    between atoms: C1'_753  and  N9_754 
REMARK   95  A    between atoms: C6_759  and  N6_760 
REMARK   96  A    between atoms: C2'_766  and  O2'_767 
REMARK   97  A    between atoms: C3'_769  and  O3'_770 
REMARK   98  A    between atoms: O3'_770  and  P_771 
REMARK   99  A    between atoms: P_771  and  O5'_774 
REMARK       I    between atoms: O5'_774  and  C5'_775 
REMARK       I    between atoms: C5'_775  and  C4'_776 
REMARK       I    between atoms: C1'_778  and  N9_779 
REMARK       I    between atoms: C6_784  and  N6_785 
REMARK       I    between atoms: C2'_791  and  O2'_792 
REMARK       I    between atoms: C3'_794  and  O3'_795 
REMARK       I    between atoms: O3'_795  and  P_796 
REMARK       I    between atoms: P_796  and  O5'_799 
REMARK       I    between atoms: O5'_799  and  C5'_800 
REMARK       I    between atoms: C5'_800  and  C4'_801 
REMARK       I    between atoms: C1'_803  and  N1_804 
REMARK       I    between atoms: C2'_813  and  O2'_814 
REMARK       I    between atoms: C3'_816  and  O3'_817 
REMARK       I    between atoms: O3'_817  and  P_818 
REMARK       I    between atoms: P_818  and  O5'_821 
REMARK       I    between atoms: O5'_821  and  C5'_822 
REMARK       I    between atoms: C5'_822  and  C4'_823 
REMARK       I    between atoms: C1'_825  and  N9_826 
REMARK       I    between atoms: C2_829  and  N2_830 
REMARK       I    between atoms: C2'_840  and  O2'_841 
REMARK       I    between atoms: C3'_843  and  O3'_844 
REMARK       I    between atoms: O3'_844  and  P_845 
REMARK       I    between atoms: P_845  and  O5'_848 
REMARK       I    between atoms: O5'_848  and  C5'_849 
REMARK       I    between atoms: C5'_849  and  C4'_850 
REMARK       I    between atoms: C1'_852  and  N9_853 
REMARK       I    between atoms: C2_856  and  N2_857 
REMARK       I    between atoms: C2'_867  and  O2'_868 
REMARK       I    between atoms: C3'_870  and  O3'_871 
REMARK       I    between atoms: O3'_871  and  P_872 
REMARK       I    between atoms: P_872  and  O5'_875 
REMARK       I    between atoms: O5'_875  and  C5'_876 
REMARK       I    between atoms: C5'_876  and  C4'_877 
REMARK       I    between atoms: C1'_879  and  N1_880 
REMARK       I    between atoms: C4_885  and  N4_886 
REMARK       I    between atoms: C2'_890  and  O2'_891 
REMARK       I    between atoms: C3'_893  and  O3'_894 
REMARK       I    between atoms: O3'_894  and  P_895 
REMARK       I    between atoms: P_895  and  O5'_898 
REMARK       I    between atoms: O5'_898  and  C5'_899 
REMARK       I    between atoms: C5'_899  and  C4'_900 
REMARK       I    between atoms: C1'_902  and  N9_903 
REMARK       I    between atoms: C6_908  and  N6_909 
REMARK       I    between atoms: C2'_915  and  O2'_916 
REMARK       I    between atoms: C3'_918  and  O3'_919 
REMARK       I    between atoms: O3'_919  and  P_920 
REMARK       I    between atoms: P_920  and  O5'_923 
REMARK       I    between atoms: O5'_923  and  C5'_924 
REMARK       I    between atoms: C5'_924  and  C4'_925 
REMARK       I    between atoms: C1'_927  and  N1_928 
REMARK       I    between atoms: C2'_937  and  O2'_938 
REMARK       I    between atoms: C3'_940  and  O3'_941 
REMARK       I    between atoms: O3'_941  and  P_942 
REMARK       I    between atoms: P_942  and  O5'_945 
REMARK       I    between atoms: O5'_945  and  C5'_946 
REMARK       I    between atoms: C5'_946  and  C4'_947 
REMARK       I    between atoms: C1'_949  and  N1_950 
REMARK       I    between atoms: C2'_959  and  O2'_960 
REMARK       I    between atoms: C3'_962  and  O3'_963 
REMARK       I    between atoms: O3'_963  and  P_964 
REMARK       I    between atoms: P_964  and  O5'_967 
REMARK       I    between atoms: O5'_967  and  C5'_968 
REMARK       I    between atoms: C5'_968  and  C4'_969 
REMARK       I    between atoms: C1'_971  and  N9_972 
REMARK       I    between atoms: C2_975  and  N2_976 
REMARK       I    between atoms: C2'_986  and  O2'_987 
REMARK       I    between atoms: C3'_989  and  O3'_990 
REMARK       I    between atoms: O3'_990  and  P_991 
REMARK       I    between atoms: P_991  and  O5'_994 
REMARK       I    between atoms: O5'_994  and  C5'_995 
REMARK       I    between atoms: C5'_995  and  C4'_996 
REMARK       I    between atoms: C1'_998  and  N9_999 
REMARK       I    between atoms: C6_1004  and  N6_1005 
REMARK       I    between atoms: C2'_1011  and  O2'_1012 
REMARK       I    between atoms: C3'_1014  and  O3'_1015 
REMARK       I    between atoms: O3'_1015  and  P_1016 
REMARK       I    between atoms: P_1016  and  O5'_1019 
REMARK       I    between atoms: O5'_1019  and  C5'_1020 
REMARK       I    between atoms: C5'_1020  and  C4'_1021 
REMARK       I    between atoms: C1'_1023  and  N9_1024 
REMARK       I    between atoms: C6_1029  and  N6_1030 
REMARK       I    between atoms: C2'_1036  and  O2'_1037 
REMARK       I    between atoms: C3'_1039  and  O3'_1040 
REMARK       I    between atoms: O3'_1040  and  P_1041 
REMARK       I    between atoms: P_1041  and  O5'_1044 
REMARK       I    between atoms: O5'_1044  and  C5'_1045 
REMARK       I    between atoms: C5'_1045  and  C4'_1046 
REMARK       I    between atoms: C1'_1048  and  N9_1049 
REMARK       I    between atoms: C2_1052  and  N2_1053 
REMARK       I    between atoms: C2'_1063  and  O2'_1064 
REMARK       I    between atoms: C3'_1066  and  O3'_1067 
REMARK       I    between atoms: O3'_1067  and  P_1068 
REMARK       I    between atoms: P_1068  and  O5'_1071 
REMARK       I    between atoms: O5'_1071  and  C5'_1072 
REMARK       I    between atoms: C5'_1072  and  C4'_1073 
REMARK       I    between atoms: C1'_1075  and  N9_1076 
REMARK       I    between atoms: C6_1081  and  N6_1082 
REMARK       I    between atoms: C2'_1088  and  O2'_1089 
REMARK       I    between atoms: C3'_1091  and  O3'_1092 
REMARK       I    between atoms: O3'_1092  and  P_1093 
REMARK       I    between atoms: P_1093  and  O5'_1096 
REMARK       I    between atoms: O5'_1096  and  C5'_1097 
REMARK       I    between atoms: C5'_1097  and  C4'_1098 
REMARK       I    between atoms: C1'_1100  and  N9_1101 
REMARK       I    between atoms: C2_1104  and  N2_1105 
REMARK       I    between atoms: C2'_1115  and  O2'_1116 
REMARK       I    between atoms: C3'_1118  and  O3'_1119 
REMARK       I    between atoms: O3'_1119  and  P_1120 
REMARK       I    between atoms: P_1120  and  O5'_1123 
REMARK       I    between atoms: O5'_1123  and  C5'_1124 
REMARK       I    between atoms: C5'_1124  and  C4'_1125 
REMARK       I    between atoms: C1'_1127  and  N9_1128 
REMARK       I    between atoms: C2_1131  and  N2_1132 
REMARK       I    between atoms: C2'_1142  and  O2'_1143 
REMARK       I    between atoms: C3'_1145  and  O3'_1146 
REMARK       I    between atoms: O3'_1146  and  P_1147 
REMARK       I    between atoms: P_1147  and  O5'_1150 
REMARK       I    between atoms: O5'_1150  and  C5'_1151 
REMARK       I    between atoms: C5'_1151  and  C4'_1152 
REMARK       I    between atoms: C1'_1154  and  N1_1155 
REMARK       I    between atoms: C2'_1164  and  O2'_1165 
REMARK       I    between atoms: C3'_1167  and  O3'_1168 
REMARK       I    between atoms: O3'_1168  and  P_1169 
REMARK       I    between atoms: P_1169  and  O5'_1172 
REMARK       I    between atoms: O5'_1172  and  C5'_1173 
REMARK       I    between atoms: C5'_1173  and  C4'_1174 
REMARK       I    between atoms: C1'_1176  and  N1_1177 
REMARK       I    between atoms: C4_1182  and  N4_1183 
REMARK       I    between atoms: C2'_1187  and  O2'_1188 
REMARK       I    between atoms: C3'_1190  and  O3'_1191 
REMARK       I    between atoms: O3'_1191  and  P_1192 
REMARK       I    between atoms: P_1192  and  O5'_1195 
REMARK       I    between atoms: O5'_1195  and  C5'_1196 
REMARK       I    between atoms: C5'_1196  and  C4'_1197 
REMARK       I    between atoms: C1'_1199  and  N9_1200 
REMARK       I    between atoms: C6_1205  and  N6_1206 
REMARK       I    between atoms: C2'_1212  and  O2'_1213 
REMARK       I    between atoms: C3'_1215  and  O3'_1216 
REMARK       I    between atoms: O3'_1216  and  P_1217 
REMARK       I    between atoms: P_1217  and  O5'_1220 
REMARK       I    between atoms: O5'_1220  and  C5'_1221 
REMARK       I    between atoms: C5'_1221  and  C4'_1222 
REMARK       I    between atoms: C1'_1224  and  N9_1225 
REMARK       I    between atoms: C2_1228  and  N2_1229 
REMARK       I    between atoms: C2'_1239  and  O2'_1240 
REMARK       I    between atoms: C3'_1242  and  O3'_1243 
REMARK       I    between atoms: O3'_1243  and  P_1244 
REMARK       I    between atoms: P_1244  and  O5'_1247 
REMARK       I    between atoms: O5'_1247  and  C5'_1248 
REMARK       I    between atoms: C5'_1248  and  C4'_1249 
REMARK       I    between atoms: C1'_1251  and  N1_1252 
REMARK       I    between atoms: C4_1257  and  N4_1258 
REMARK       I    between atoms: C2'_1262  and  O2'_1263 
REMARK       I    between atoms: C3'_1265  and  O3'_1266 
REMARK       I    between atoms: O3'_1266  and  P_1267 
REMARK       I    between atoms: P_1267  and  O5'_1270 
REMARK       I    between atoms: O5'_1270  and  C5'_1271 
REMARK       I    between atoms: C5'_1271  and  C4'_1272 
REMARK       I    between atoms: C1'_1274  and  N1_1275 
REMARK       I    between atoms: C4_1280  and  N4_1281 
REMARK       I    between atoms: C2'_1285  and  O2'_1286 
REMARK       I    between atoms: C3'_1288  and  O3'_1289 
REMARK       I    between atoms: O3'_1289  and  P_1290 
REMARK       I    between atoms: P_1290  and  O5'_1293 
REMARK       I    between atoms: O5'_1293  and  C5'_1294 
REMARK       I    between atoms: C5'_1294  and  C4'_1295 
REMARK       I    between atoms: C1'_1297  and  N1_1298 
REMARK       I    between atoms: C4_1303  and  N4_1304 
REMARK       I    between atoms: C2'_1308  and  O2'_1309 
REMARK       I    between atoms: C3'_1311  and  O3'_1312 
REMARK       I    between atoms: O3'_1312  and  P_1313 
REMARK       I    between atoms: P_1313  and  O5'_1316 
REMARK       I    between atoms: O5'_1316  and  C5'_1317 
REMARK       I    between atoms: C5'_1317  and  C4'_1318 
REMARK       I    between atoms: C1'_1320  and  N1_1321 
REMARK       I    between atoms: C4_1326  and  N4_1327 
REMARK       I    between atoms: C2'_1331  and  O2'_1332 
REMARK       I    between atoms: C3'_1334  and  O3'_1335 
REMARK       I    between atoms: O3'_1335  and  P_1336 
REMARK       I    between atoms: P_1336  and  O5'_1339 
REMARK       I    between atoms: O5'_1339  and  C5'_1340 
REMARK       I    between atoms: C5'_1340  and  C4'_1341 
REMARK       I    between atoms: C1'_1343  and  N1_1344 
REMARK       I    between atoms: C4_1349  and  N4_1350 
REMARK       I    between atoms: C2'_1354  and  O2'_1355 
REMARK       I    between atoms: C3'_1357  and  O3'_1358 
ROOT
ATOM      1 5'HO  DG A   1     106.433  99.576 215.631  1.00  0.00     0.209 HD
ATOM      2  O5'  DG A   1     106.438 100.521 215.458  1.00  0.00    -0.398 OA
ATOM      3  C5'  DG A   1     107.156 100.720 214.236  1.00  0.00     0.198 C 
ATOM      4  C4'  DG A   1     107.393  99.403 213.532  1.00  0.00     0.180 C 
ATOM      5  O4'  DG A   1     108.332  98.618 214.318  1.00  0.00    -0.353 OA
ATOM      6  C1'  DG A   1     107.894  97.272 214.385  1.00  0.00     0.262 C 
ATOM      7  N9   DG A   1     107.498  96.987 215.761  1.00  0.00    -0.293 N 
ATOM      8  C4   DG A   1     107.024  95.791 216.244  1.00  0.00     0.187 A 
ATOM      9  N3   DG A   1     106.839  94.663 215.526  1.00  0.00    -0.044 NA
ATOM     10  C2   DG A   1     106.373  93.676 216.271  1.00  0.00     0.703 A 
ATOM     11  N2   DG A   1     106.135  92.484 215.719  1.00  0.00    -0.233 N 
ATOM     12  H21  DG A   1     106.314  92.351 214.735  1.00  0.00     0.174 HD
ATOM     13  H22  DG A   1     105.780  91.723 216.282  1.00  0.00     0.174 HD
ATOM     14  N1   DG A   1     106.108  93.785 217.612  1.00  0.00    -0.153 N 
ATOM     15  H1   DG A   1     105.753  92.969 218.086  1.00  0.00     0.187 HD
ATOM     16  C6   DG A   1     106.287  94.934 218.372  1.00  0.00     0.292 A 
ATOM     17  O6   DG A   1     106.015  94.921 219.579  1.00  0.00    -0.265 OA
ATOM     18  C5   DG A   1     106.788  96.005 217.587  1.00  0.00     0.173 A 
ATOM     19  N7   DG A   1     107.108  97.309 217.941  1.00  0.00    -0.234 NA
ATOM     20  C8   DG A   1     107.523  97.851 216.829  1.00  0.00     0.214 A 
ATOM     21  C2'  DG A   1     106.762  97.115 213.371  1.00  0.00     0.199 C 
ATOM     22  O2'  DG A   1     107.322  96.808 212.107  1.00  0.00    -0.388 OA
ATOM     23 2'HO  DG A   1     106.669  97.049 211.451  1.00  0.00     0.210 HD
ATOM     24  C3'  DG A   1     106.163  98.515 213.383  1.00  0.00     0.198 C 
ATOM     25  O3'  DG A   1     105.449  98.813 212.186  1.00  0.00    -0.279 OA
ATOM     26  P    DG A   2     103.848  98.659 212.151  1.00  0.00     0.408 P 
ATOM     27  OP1  DG A   2     103.394  99.118 210.813  1.00  0.00    -0.624 OA
ATOM     28  OP2  DG A   2     103.289  99.295 213.372  1.00  0.00    -0.624 OA
ATOM     29  O5'  DG A   2     103.608  97.087 212.248  1.00  0.00    -0.287 OA
ATOM     30  C5'  DG A   2     104.014  96.215 211.196  1.00  0.00     0.216 C 
ATOM     31  C4'  DG A   2     103.450  94.830 211.417  1.00  0.00     0.180 C 
ATOM     32  O4'  DG A   2     104.204  94.172 212.471  1.00  0.00    -0.353 OA
ATOM     33  C1'  DG A   2     103.331  93.371 213.252  1.00  0.00     0.262 C 
ATOM     34  N9   DG A   2     103.336  93.879 214.620  1.00  0.00    -0.293 N 
ATOM     35  C4   DG A   2     102.932  93.201 215.744  1.00  0.00     0.187 A 
ATOM     36  N3   DG A   2     102.460  91.938 215.782  1.00  0.00    -0.044 NA
ATOM     37  C2   DG A   2     102.151  91.563 217.009  1.00  0.00     0.703 A 
ATOM     38  N2   DG A   2     101.666  90.338 217.226  1.00  0.00    -0.233 N 
ATOM     39  H21  DG A   2     101.542  89.710 216.446  1.00  0.00     0.174 HD
ATOM     40  H22  DG A   2     101.423  90.042 218.162  1.00  0.00     0.174 HD
ATOM     41  N1   DG A   2     102.292  92.361 218.116  1.00  0.00    -0.153 N 
ATOM     42  H1   DG A   2     102.024  91.977 219.007  1.00  0.00     0.187 HD
ATOM     43  C6   DG A   2     102.778  93.663 218.103  1.00  0.00     0.292 A 
ATOM     44  O6   DG A   2     102.868  94.294 219.163  1.00  0.00    -0.265 OA
ATOM     45  C5   DG A   2     103.114  94.084 216.789  1.00  0.00     0.173 A 
ATOM     46  N7   DG A   2     103.623  95.291 216.332  1.00  0.00    -0.234 NA
ATOM     47  C8   DG A   2     103.738  95.123 215.043  1.00  0.00     0.214 A 
ATOM     48  C2'  DG A   2     101.954  93.419 212.591  1.00  0.00     0.199 C 
ATOM     49  O2'  DG A   2     101.863  92.366 211.650  1.00  0.00    -0.388 OA
ATOM     50 2'HO  DG A   2     100.934  92.157 211.560  1.00  0.00     0.210 HD
ATOM     51  C3'  DG A   2     102.009  94.777 211.903  1.00  0.00     0.198 C 
ATOM     52  O3'  DG A   2     101.081  94.885 210.828  1.00  0.00    -0.279 OA
ATOM     53  P    DG A   3      99.584  95.397 211.114  1.00  0.00     0.408 P 
ATOM     54  OP1  DG A   3      98.855  95.375 209.821  1.00  0.00    -0.624 OA
ATOM     55  OP2  DG A   3      99.662  96.662 211.889  1.00  0.00    -0.624 OA
ATOM     56  O5'  DG A   3      98.963  94.271 212.056  1.00  0.00    -0.287 OA
ATOM     57  C5'  DG A   3      98.403  93.081 211.504  1.00  0.00     0.216 C 
ATOM     58  C4'  DG A   3      98.192  92.046 212.588  1.00  0.00     0.180 C 
ATOM     59  O4'  DG A   3      99.268  92.126 213.557  1.00  0.00    -0.353 OA
ATOM     60  C1'  DG A   3      98.799  91.666 214.813  1.00  0.00     0.262 C 
ATOM     61  N9   DG A   3      99.144  92.655 215.830  1.00  0.00    -0.293 N 
ATOM     62  C4   DG A   3      98.930  92.537 217.182  1.00  0.00     0.187 A 
ATOM     63  N3   DG A   3      98.361  91.484 217.806  1.00  0.00    -0.044 NA
ATOM     64  C2   DG A   3      98.289  91.665 219.112  1.00  0.00     0.703 A 
ATOM     65  N2   DG A   3      97.746  90.720 219.884  1.00  0.00    -0.233 N 
ATOM     66  H21  DG A   3      97.395  89.876 219.456  1.00  0.00     0.174 HD
ATOM     67  H22  DG A   3      97.679  90.850 220.884  1.00  0.00     0.174 HD
ATOM     68  N1   DG A   3      98.744  92.785 219.759  1.00  0.00    -0.153 N 
ATOM     69  H1   DG A   3      98.639  92.819 220.761  1.00  0.00     0.187 HD
ATOM     70  C6   DG A   3      99.337  93.880 219.141  1.00  0.00     0.292 A 
ATOM     71  O6   DG A   3      99.715  94.839 219.823  1.00  0.00    -0.265 OA
ATOM     72  C5   DG A   3      99.416  93.703 217.734  1.00  0.00     0.173 A 
ATOM     73  N7   DG A   3      99.925  94.540 216.748  1.00  0.00    -0.234 NA
ATOM     74  C8   DG A   3      99.741  93.877 215.639  1.00  0.00     0.214 A 
ATOM     75  C2'  DG A   3      97.293  91.418 214.692  1.00  0.00     0.199 C 
ATOM     76  O2'  DG A   3      97.083  90.033 214.485  1.00  0.00    -0.388 OA
ATOM     77 2'HO  DG A   3      96.413  89.956 213.806  1.00  0.00     0.210 HD
ATOM     78  C3'  DG A   3      96.946  92.220 213.441  1.00  0.00     0.198 C 
ATOM     79  O3'  DG A   3      95.782  91.722 212.784  1.00  0.00    -0.279 OA
ATOM     80  P    DG A   4      94.331  92.289 213.189  1.00  0.00     0.408 P 
ATOM     81  OP1  DG A   4      93.323  91.465 212.472  1.00  0.00    -0.624 OA
ATOM     82  OP2  DG A   4      94.336  93.762 213.005  1.00  0.00    -0.624 OA
ATOM     83  O5'  DG A   4      94.210  91.976 214.748  1.00  0.00    -0.287 OA
ATOM     84  C5'  DG A   4      94.123  90.634 215.224  1.00  0.00     0.216 C 
ATOM     85  C4'  DG A   4      93.704  90.619 216.676  1.00  0.00     0.180 C 
ATOM     86  O4'  DG A   4      94.854  90.919 217.509  1.00  0.00    -0.353 OA
ATOM     87  C1'  DG A   4      94.419  91.560 218.696  1.00  0.00     0.262 C 
ATOM     88  N9   DG A   4      95.157  92.810 218.844  1.00  0.00    -0.293 N 
ATOM     89  C4   DG A   4      95.408  93.471 220.022  1.00  0.00     0.187 A 
ATOM     90  N3   DG A   4      95.018  93.075 221.250  1.00  0.00    -0.044 NA
ATOM     91  C2   DG A   4      95.407  93.919 222.187  1.00  0.00     0.703 A 
ATOM     92  N2   DG A   4      95.110  93.670 223.464  1.00  0.00    -0.233 N 
ATOM     93  H21  DG A   4      94.590  92.837 223.696  1.00  0.00     0.174 HD
ATOM     94  H22  DG A   4      95.401  94.307 224.193  1.00  0.00     0.174 HD
ATOM     95  N1   DG A   4      96.118  95.065 221.941  1.00  0.00    -0.153 N 
ATOM     96  H1   DG A   4      96.362  95.648 222.726  1.00  0.00     0.187 HD
ATOM     97  C6   DG A   4      96.533  95.495 220.686  1.00  0.00     0.292 A 
ATOM     98  O6   DG A   4      97.175  96.545 220.577  1.00  0.00    -0.265 OA
ATOM     99  C5   DG A   4      96.124  94.595 219.665  1.00  0.00     0.173 A 
ATOM    100  N7   DG A   4      96.322  94.639 218.292  1.00  0.00    -0.234 NA
ATOM    101  C8   DG A   4      95.733  93.561 217.849  1.00  0.00     0.214 A 
ATOM    102  C2'  DG A   4      92.904  91.756 218.596  1.00  0.00     0.199 C 
ATOM    103  O2'  DG A   4      92.268  90.687 219.271  1.00  0.00    -0.388 OA
ATOM    104 2'HO  DG A   4      91.337  90.904 219.328  1.00  0.00     0.210 HD
ATOM    105  C3'  DG A   4      92.686  91.670 217.089  1.00  0.00     0.198 C 
ATOM    106  O3'  DG A   4      91.355  91.280 216.750  1.00  0.00    -0.279 OA
ATOM    107  P    DG A   5      90.268  92.399 216.354  1.00  0.00     0.408 P 
ATOM    108  OP1  DG A   5      89.262  91.738 215.483  1.00  0.00    -0.624 OA
ATOM    109  OP2  DG A   5      90.977  93.608 215.864  1.00  0.00    -0.624 OA
ATOM    110  O5'  DG A   5      89.563  92.765 217.737  1.00  0.00    -0.287 OA
ATOM    111  C5'  DG A   5      88.477  91.986 218.241  1.00  0.00     0.216 C 
ATOM    112  C4'  DG A   5      88.534  91.924 219.752  1.00  0.00     0.180 C 
ATOM    113  O4'  DG A   5      89.922  91.969 220.178  1.00  0.00    -0.353 OA
ATOM    114  C1'  DG A   5      90.023  92.686 221.396  1.00  0.00     0.262 C 
ATOM    115  N9   DG A   5      90.904  93.831 221.188  1.00  0.00    -0.293 N 
ATOM    116  C4   DG A   5      91.663  94.461 222.146  1.00  0.00     0.187 A 
ATOM    117  N3   DG A   5      91.729  94.128 223.452  1.00  0.00    -0.044 NA
ATOM    118  C2   DG A   5      92.547  94.919 224.121  1.00  0.00     0.703 A 
ATOM    119  N2   DG A   5      92.731  94.729 225.431  1.00  0.00    -0.233 N 
ATOM    120  H21  DG A   5      92.241  93.979 225.896  1.00  0.00     0.174 HD
ATOM    121  H22  DG A   5      93.360  95.323 225.953  1.00  0.00     0.174 HD
ATOM    122  N1   DG A   5      93.245  95.955 223.559  1.00  0.00    -0.153 N 
ATOM    123  H1   DG A   5      93.846  96.494 224.164  1.00  0.00     0.187 HD
ATOM    124  C6   DG A   5      93.193  96.320 222.219  1.00  0.00     0.292 A 
ATOM    125  O6   DG A   5      93.864  97.276 221.817  1.00  0.00    -0.265 OA
ATOM    126  C5   DG A   5      92.318  95.477 221.483  1.00  0.00     0.173 A 
ATOM    127  N7   DG A   5      91.978  95.488 220.136  1.00  0.00    -0.234 NA
ATOM    128  C8   DG A   5      91.140  94.496 220.010  1.00  0.00     0.214 A 
ATOM    129  C2'  DG A   5      88.609  93.080 221.825  1.00  0.00     0.199 C 
ATOM    130  O2'  DG A   5      88.097  92.074 222.679  1.00  0.00    -0.388 OA
ATOM    131 2'HO  DG A   5      87.205  91.892 222.383  1.00  0.00     0.210 HD
ATOM    132  C3'  DG A   5      87.882  93.087 220.486  1.00  0.00     0.198 C 
ATOM    133  O3'  DG A   5      86.477  92.899 220.636  1.00  0.00    -0.279 OA
ATOM    134  P    DT A   6      85.510  94.178 220.788  1.00  0.00     0.408 P 
ATOM    135  OP1  DT A   6      84.198  93.685 221.280  1.00  0.00    -0.624 OA
ATOM    136  OP2  DT A   6      85.574  94.959 219.528  1.00  0.00    -0.624 OA
ATOM    137  O5'  DT A   6      86.187  95.041 221.945  1.00  0.00    -0.287 OA
ATOM    138  C5'  DT A   6      86.128  94.622 223.308  1.00  0.00     0.216 C 
ATOM    139  C4'  DT A   6      86.526  95.758 224.223  1.00  0.00     0.180 C 
ATOM    140  O4'  DT A   6      87.966  95.938 224.173  1.00  0.00    -0.353 OA
ATOM    141  C1'  DT A   6      88.278  97.309 224.360  1.00  0.00     0.264 C 
ATOM    142  N1   DT A   6      89.050  97.777 223.199  1.00  0.00    -0.280 N 
ATOM    143  C6   DT A   6      89.007  97.113 221.992  1.00  0.00     0.104 A 
ATOM    144  C2   DT A   6      89.822  98.912 223.359  1.00  0.00     0.331 A 
ATOM    145  O2   DT A   6      89.890  99.525 224.408  1.00  0.00    -0.246 OA
ATOM    146  N3   DT A   6      90.515  99.305 222.243  1.00  0.00    -0.275 N 
ATOM    147  H3   DT A   6      91.067 100.145 222.331  1.00  0.00     0.173 HD
ATOM    148  C4   DT A   6      90.520  98.692 221.013  1.00  0.00     0.250 A 
ATOM    149  O4   DT A   6      91.207  99.165 220.107  1.00  0.00    -0.268 OA
ATOM    150  C5   DT A   6      89.700  97.525 220.925  1.00  0.00     0.092 A 
ATOM    151  C2'  DT A   6      86.960  98.060 224.556  1.00  0.00     0.199 C 
ATOM    152  O2'  DT A   6      86.688  98.139 225.943  1.00  0.00    -0.388 OA
ATOM    153 2'HO  DT A   6      86.132  98.908 226.074  1.00  0.00     0.210 HD
ATOM    154  C3'  DT A   6      85.983  97.128 223.850  1.00  0.00     0.198 C 
ATOM    155  O3'  DT A   6      84.639  97.305 224.289  1.00  0.00    -0.279 OA
ATOM    156  P    DG A   7      83.675  98.332 223.513  1.00  0.00     0.408 P 
ATOM    157  OP1  DG A   7      82.308  98.157 224.067  1.00  0.00    -0.624 OA
ATOM    158  OP2  DG A   7      83.900  98.180 222.053  1.00  0.00    -0.624 OA
ATOM    159  O5'  DG A   7      84.208  99.768 223.951  1.00  0.00    -0.287 OA
ATOM    160  C5'  DG A   7      83.998 100.257 225.275  1.00  0.00     0.216 C 
ATOM    161  C4'  DG A   7      84.771 101.539 225.491  1.00  0.00     0.180 C 
ATOM    162  O4'  DG A   7      86.174 101.320 225.196  1.00  0.00    -0.353 OA
ATOM    163  C1'  DG A   7      86.759 102.545 224.784  1.00  0.00     0.262 C 
ATOM    164  N9   DG A   7      87.468 102.321 223.528  1.00  0.00    -0.293 N 
ATOM    165  C4   DG A   7      88.449 103.120 222.992  1.00  0.00     0.187 A 
ATOM    166  N3   DG A   7      88.933 104.256 223.538  1.00  0.00    -0.044 NA
ATOM    167  C2   DG A   7      89.873 104.802 222.788  1.00  0.00     0.703 A 
ATOM    168  N2   DG A   7      90.462 105.933 223.182  1.00  0.00    -0.233 N 
ATOM    169  H21  DG A   7      90.183 106.361 224.053  1.00  0.00     0.174 HD
ATOM    170  H22  DG A   7      91.175 106.365 222.610  1.00  0.00     0.174 HD
ATOM    171  N1   DG A   7      90.304 104.279 221.596  1.00  0.00    -0.153 N 
ATOM    172  H1   DG A   7      91.028 104.780 221.103  1.00  0.00     0.187 HD
ATOM    173  C6   DG A   7      89.821 103.114 221.013  1.00  0.00     0.292 A 
ATOM    174  O6   DG A   7      90.280 102.734 219.930  1.00  0.00    -0.265 OA
ATOM    175  C5   DG A   7      88.811 102.513 221.809  1.00  0.00     0.173 A 
ATOM    176  N7   DG A   7      88.072 101.355 221.602  1.00  0.00    -0.234 NA
ATOM    177  C8   DG A   7      87.290 101.284 222.645  1.00  0.00     0.214 A 
ATOM    178  C2'  DG A   7      85.643 103.585 224.674  1.00  0.00     0.199 C 
ATOM    179  O2'  DG A   7      85.627 104.360 225.859  1.00  0.00    -0.388 OA
ATOM    180 2'HO  DG A   7      85.126 105.152 225.664  1.00  0.00     0.210 HD
ATOM    181  C3'  DG A   7      84.405 102.698 224.580  1.00  0.00     0.198 C 
ATOM    182  O3'  DG A   7      83.224 103.366 225.016  1.00  0.00    -0.279 OA
ATOM    183  P    DT A   8      82.386 104.267 223.980  1.00  0.00     0.408 P 
ATOM    184  OP1  DT A   8      81.326 104.963 224.754  1.00  0.00    -0.624 OA
ATOM    185  OP2  DT A   8      82.010 103.418 222.820  1.00  0.00    -0.624 OA
ATOM    186  O5'  DT A   8      83.437 105.355 223.476  1.00  0.00    -0.287 OA
ATOM    187  C5'  DT A   8      83.446 106.678 224.014  1.00  0.00     0.216 C 
ATOM    188  C4'  DT A   8      84.832 107.277 223.914  1.00  0.00     0.180 C 
ATOM    189  O4'  DT A   8      85.788 106.234 223.588  1.00  0.00    -0.353 OA
ATOM    190  C1'  DT A   8      86.821 106.768 222.778  1.00  0.00     0.264 C 
ATOM    191  N1   DT A   8      86.883 105.992 221.531  1.00  0.00    -0.280 N 
ATOM    192  C6   DT A   8      85.901 105.083 221.203  1.00  0.00     0.104 A 
ATOM    193  C2   DT A   8      87.963 106.205 220.693  1.00  0.00     0.331 A 
ATOM    194  O2   DT A   8      88.850 107.000 220.944  1.00  0.00    -0.246 OA
ATOM    195  N3   DT A   8      87.967 105.451 219.550  1.00  0.00    -0.275 N 
ATOM    196  H3   DT A   8      88.745 105.592 218.924  1.00  0.00     0.173 HD
ATOM    197  C4   DT A   8      87.026 104.526 219.163  1.00  0.00     0.250 A 
ATOM    198  O4   DT A   8      87.174 103.924 218.099  1.00  0.00    -0.268 OA
ATOM    199  C5   DT A   8      85.940 104.364 220.077  1.00  0.00     0.092 A 
ATOM    200  C2'  DT A   8      86.529 108.255 222.565  1.00  0.00     0.199 C 
ATOM    201  O2'  DT A   8      87.232 108.997 223.544  1.00  0.00    -0.388 OA
ATOM    202 2'HO  DT A   8      86.573 109.423 224.092  1.00  0.00     0.210 HD
ATOM    203  C3'  DT A   8      85.023 108.307 222.809  1.00  0.00     0.198 C 
ATOM    204  O3'  DT A   8      84.577 109.597 223.222  1.00  0.00    -0.279 OA
ATOM    205  P    DA A   9      84.507 110.803 222.157  1.00  0.00     0.408 P 
ATOM    206  OP1  DA A   9      85.589 110.590 221.163  1.00  0.00    -0.624 OA
ATOM    207  OP2  DA A   9      84.460 112.074 222.923  1.00  0.00    -0.624 OA
ATOM    208  O5'  DA A   9      83.096 110.609 221.442  1.00  0.00    -0.287 OA
ATOM    209  C5'  DA A   9      82.959 109.798 220.273  1.00  0.00     0.216 C 
ATOM    210  C4'  DA A   9      83.298 110.600 219.038  1.00  0.00     0.180 C 
ATOM    211  O4'  DA A   9      84.695 110.362 218.712  1.00  0.00    -0.353 OA
ATOM    212  C1'  DA A   9      84.830 110.096 217.331  1.00  0.00     0.262 C 
ATOM    213  N9   DA A   9      85.187 108.686 217.170  1.00  0.00    -0.294 N 
ATOM    214  C4   DA A   9      84.341 107.652 216.840  1.00  0.00     0.167 A 
ATOM    215  N3   DA A   9      83.021 107.722 216.603  1.00  0.00    -0.222 NA
ATOM    216  C2   DA A   9      82.531 106.521 216.313  1.00  0.00     0.237 A 
ATOM    217  N1   DA A   9      83.164 105.344 216.236  1.00  0.00    -0.222 NA
ATOM    218  C6   DA A   9      84.491 105.308 216.478  1.00  0.00     0.155 A 
ATOM    219  N6   DA A   9      85.119 104.136 216.397  1.00  0.00    -0.382 N 
ATOM    220  H61  DA A   9      86.113 104.080 216.573  1.00  0.00     0.157 HD
ATOM    221  H62  DA A   9      84.595 103.309 216.152  1.00  0.00     0.157 HD
ATOM    222  C5   DA A   9      85.130 106.518 216.801  1.00  0.00     0.149 A 
ATOM    223  N7   DA A   9      86.450 106.826 217.102  1.00  0.00    -0.236 NA
ATOM    224  C8   DA A   9      86.430 108.120 217.315  1.00  0.00     0.214 A 
ATOM    225  C2'  DA A   9      83.516 110.496 216.663  1.00  0.00     0.199 C 
ATOM    226  O2'  DA A   9      83.577 111.874 216.347  1.00  0.00    -0.388 OA
ATOM    227 2'HO  DA A   9      82.703 112.137 216.056  1.00  0.00     0.210 HD
ATOM    228  C3'  DA A   9      82.517 110.224 217.783  1.00  0.00     0.198 C 
ATOM    229  O3'  DA A   9      81.331 111.005 217.648  1.00  0.00    -0.279 OA
ATOM    230  P    DG A  10      80.101 110.453 216.766  1.00  0.00     0.408 P 
ATOM    231  OP1  DG A  10      80.484 109.130 216.207  1.00  0.00    -0.624 OA
ATOM    232  OP2  DG A  10      78.862 110.575 217.576  1.00  0.00    -0.624 OA
ATOM    233  O5'  DG A  10      80.002 111.481 215.551  1.00  0.00    -0.287 OA
ATOM    234  C5'  DG A  10      79.760 112.870 215.777  1.00  0.00     0.216 C 
ATOM    235  C4'  DG A  10      80.737 113.707 214.980  1.00  0.00     0.180 C 
ATOM    236  O4'  DG A  10      81.832 112.865 214.530  1.00  0.00    -0.353 OA
ATOM    237  C1'  DG A  10      82.227 113.249 213.224  1.00  0.00     0.262 C 
ATOM    238  N9   DG A  10      81.997 112.122 212.324  1.00  0.00    -0.293 N 
ATOM    239  C4   DG A  10      82.316 112.069 210.988  1.00  0.00     0.187 A 
ATOM    240  N3   DG A  10      82.899 113.052 210.272  1.00  0.00    -0.044 NA
ATOM    241  C2   DG A  10      83.080 112.704 209.011  1.00  0.00     0.703 A 
ATOM    242  N2   DG A  10      83.645 113.564 208.160  1.00  0.00    -0.233 N 
ATOM    243  H21  DG A  10      83.927 114.474 208.493  1.00  0.00     0.174 HD
ATOM    244  H22  DG A  10      83.795 113.307 207.194  1.00  0.00     0.174 HD
ATOM    245  N1   DG A  10      82.720 111.488 208.491  1.00  0.00    -0.153 N 
ATOM    246  H1   DG A  10      82.906 111.321 207.515  1.00  0.00     0.187 HD
ATOM    247  C6   DG A  10      82.118 110.459 209.207  1.00  0.00     0.292 A 
ATOM    248  O6   DG A  10      81.832 109.401 208.635  1.00  0.00    -0.265 OA
ATOM    249  C5   DG A  10      81.916 110.818 210.566  1.00  0.00     0.173 A 
ATOM    250  N7   DG A  10      81.354 110.099 211.614  1.00  0.00    -0.234 NA
ATOM    251  C8   DG A  10      81.424 110.912 212.633  1.00  0.00     0.214 A 
ATOM    252  C2'  DG A  10      81.434 114.501 212.853  1.00  0.00     0.199 C 
ATOM    253  O2'  DG A  10      82.169 115.641 213.260  1.00  0.00    -0.388 OA
ATOM    254 2'HO  DG A  10      81.619 116.118 213.881  1.00  0.00     0.210 HD
ATOM    255  C3'  DG A  10      80.181 114.322 213.702  1.00  0.00     0.198 C 
ATOM    256  O3'  DG A  10      79.520 115.559 213.959  1.00  0.00    -0.279 OA
ATOM    257  P    DC A  11      78.161 115.920 213.176  1.00  0.00     0.408 P 
ATOM    258  OP1  DC A  11      77.586 117.124 213.826  1.00  0.00    -0.624 OA
ATOM    259  OP2  DC A  11      77.342 114.686 213.062  1.00  0.00    -0.624 OA
ATOM    260  O5'  DC A  11      78.650 116.326 211.714  1.00  0.00    -0.287 OA
ATOM    261  C5'  DC A  11      79.402 117.520 211.495  1.00  0.00     0.216 C 
ATOM    262  C4'  DC A  11      79.627 117.731 210.015  1.00  0.00     0.180 C 
ATOM    263  O4'  DC A  11      80.631 116.783 209.558  1.00  0.00    -0.353 OA
ATOM    264  C1'  DC A  11      80.232 116.222 208.321  1.00  0.00     0.264 C 
ATOM    265  N1   DC A  11      79.915 114.800 208.533  1.00  0.00    -0.278 N 
ATOM    266  C6   DC A  11      79.627 114.325 209.783  1.00  0.00     0.102 A 
ATOM    267  C2   DC A  11      79.914 113.937 207.435  1.00  0.00     0.352 A 
ATOM    268  O2   DC A  11      80.171 114.392 206.312  1.00  0.00    -0.244 OA
ATOM    269  N3   DC A  11      79.632 112.629 207.623  1.00  0.00    -0.177 NA
ATOM    270  C4   DC A  11      79.359 112.175 208.846  1.00  0.00     0.128 A 
ATOM    271  N4   DC A  11      79.091 110.877 208.983  1.00  0.00    -0.384 N 
ATOM    272  H41  DC A  11      78.878 110.493 209.892  1.00  0.00     0.157 HD
ATOM    273  H42  DC A  11      79.105 110.276 208.171  1.00  0.00     0.157 HD
ATOM    274  C5   DC A  11      79.348 113.032 209.984  1.00  0.00     0.067 A 
ATOM    275  C2'  DC A  11      79.052 117.046 207.811  1.00  0.00     0.199 C 
ATOM    276  O2'  DC A  11      79.554 118.155 207.088  1.00  0.00    -0.388 OA
ATOM    277 2'HO  DC A  11      79.156 118.938 207.470  1.00  0.00     0.210 HD
ATOM    278  C3'  DC A  11      78.415 117.483 209.124  1.00  0.00     0.198 C 
ATOM    279  O3'  DC A  11      77.622 118.657 208.973  1.00  0.00    -0.279 OA
ATOM    280  P    DT A  12      76.082 118.528 208.522  1.00  0.00     0.408 P 
ATOM    281  OP1  DT A  12      75.516 119.900 208.481  1.00  0.00    -0.624 OA
ATOM    282  OP2  DT A  12      75.433 117.490 209.361  1.00  0.00    -0.624 OA
ATOM    283  O5'  DT A  12      76.160 117.976 207.027  1.00  0.00    -0.287 OA
ATOM    284  C5'  DT A  12      76.721 118.766 205.979  1.00  0.00     0.216 C 
ATOM    285  C4'  DT A  12      76.399 118.154 204.635  1.00  0.00     0.180 C 
ATOM    286  O4'  DT A  12      77.294 117.032 204.403  1.00  0.00    -0.353 OA
ATOM    287  C1'  DT A  12      76.587 115.974 203.779  1.00  0.00     0.264 C 
ATOM    288  N1   DT A  12      76.572 114.824 204.695  1.00  0.00    -0.280 N 
ATOM    289  C6   DT A  12      76.523 115.000 206.058  1.00  0.00     0.104 A 
ATOM    290  C2   DT A  12      76.611 113.557 204.141  1.00  0.00     0.331 A 
ATOM    291  O2   DT A  12      76.659 113.358 202.941  1.00  0.00    -0.246 OA
ATOM    292  N3   DT A  12      76.594 112.529 205.047  1.00  0.00    -0.275 N 
ATOM    293  H3   DT A  12      76.615 111.596 204.662  1.00  0.00     0.173 HD
ATOM    294  C4   DT A  12      76.545 112.633 206.419  1.00  0.00     0.250 A 
ATOM    295  O4   DT A  12      76.534 111.611 207.103  1.00  0.00    -0.268 OA
ATOM    296  C5   DT A  12      76.510 113.974 206.912  1.00  0.00     0.092 A 
ATOM    297  C2'  DT A  12      75.195 116.498 203.429  1.00  0.00     0.199 C 
ATOM    298  O2'  DT A  12      75.240 117.074 202.136  1.00  0.00    -0.388 OA
ATOM    299 2'HO  DT A  12      74.536 117.721 202.096  1.00  0.00     0.210 HD
ATOM    300  C3'  DT A  12      75.002 117.563 204.503  1.00  0.00     0.198 C 
ATOM    301  O3'  DT A  12      74.047 118.550 204.126  1.00  0.00    -0.279 OA
ATOM    302  P    DC A  13      72.480 118.279 204.366  1.00  0.00     0.408 P 
ATOM    303  OP1  DC A  13      71.760 119.531 204.019  1.00  0.00    -0.624 OA
ATOM    304  OP2  DC A  13      72.310 117.687 205.719  1.00  0.00    -0.624 OA
ATOM    305  O5'  DC A  13      72.110 117.179 203.275  1.00  0.00    -0.287 OA
ATOM    306  C5'  DC A  13      71.553 115.919 203.652  1.00  0.00     0.216 C 
ATOM    307  C4'  DC A  13      72.055 114.833 202.730  1.00  0.00     0.180 C 
ATOM    308  O4'  DC A  13      73.311 114.319 203.254  1.00  0.00    -0.353 OA
ATOM    309  C1'  DC A  13      73.336 112.906 203.144  1.00  0.00     0.264 C 
ATOM    310  N1   DC A  13      73.327 112.334 204.502  1.00  0.00    -0.278 N 
ATOM    311  C6   DC A  13      73.228 113.139 205.601  1.00  0.00     0.102 A 
ATOM    312  C2   DC A  13      73.417 110.945 204.650  1.00  0.00     0.352 A 
ATOM    313  O2   DC A  13      73.511 110.235 203.638  1.00  0.00    -0.244 OA
ATOM    314  N3   DC A  13      73.400 110.412 205.890  1.00  0.00    -0.177 NA
ATOM    315  C4   DC A  13      73.302 111.207 206.957  1.00  0.00     0.128 A 
ATOM    316  C5   DC A  13      73.211 112.624 206.837  1.00  0.00     0.067 A 
ATOM    317  C2'  DC A  13      72.136 112.494 202.293  1.00  0.00     0.199 C 
ATOM    318  C3'  DC A  13      71.150 113.612 202.614  1.00  0.00     0.198 C 
ENDROOT
BRANCH 318 319
ATOM    319  O3'  DC A  13      70.172 113.781 201.592  1.00  0.00    -0.279 OA
BRANCH 319 320
ATOM    320  P    DA A  14      68.611 113.619 201.945  1.00  0.00     0.408 P 
ATOM    321  OP2  DA A  14      68.297 112.169 201.990  1.00  0.00    -0.624 OA
ATOM    322  OP1  DA A  14      68.339 114.466 203.136  1.00  0.00    -0.624 OA
BRANCH 320 323
ATOM    323  O5'  DA A  14      67.864 114.252 200.687  1.00  0.00    -0.287 OA
BRANCH 323 324
ATOM    324  C5'  DA A  14      68.592 114.716 199.550  1.00  0.00     0.216 C 
BRANCH 324 325
ATOM    325  C4'  DA A  14      67.708 115.579 198.681  1.00  0.00     0.180 C 
ATOM    326  C3'  DA A  14      68.133 115.677 197.222  1.00  0.00     0.198 C 
ATOM    327  C2'  DA A  14      67.594 117.040 196.810  1.00  0.00     0.199 C 
ATOM    328  C1'  DA A  14      67.836 117.848 198.084  1.00  0.00     0.262 C 
ATOM    329  O4'  DA A  14      67.754 116.946 199.174  1.00  0.00    -0.353 OA
BRANCH 326 330
ATOM    330  O3'  DA A  14      67.584 114.620 196.440  1.00  0.00    -0.279 OA
BRANCH 330 331
ATOM    331  P    DG A  15      66.098 114.086 196.749  1.00  0.00     0.408 P 
ATOM    332  OP2  DG A  15      65.607 114.759 197.978  1.00  0.00    -0.624 OA
ATOM    333  OP1  DG A  15      65.319 114.200 195.490  1.00  0.00    -0.624 OA
BRANCH 331 334
ATOM    334  O5'  DG A  15      66.301 112.538 197.075  1.00  0.00    -0.287 OA
BRANCH 334 335
ATOM    335  C5'  DG A  15      66.347 111.566 196.031  1.00  0.00     0.216 C 
BRANCH 335 336
ATOM    336  C4'  DG A  15      65.002 110.891 195.883  1.00  0.00     0.180 C 
ATOM    337  C3'  DG A  15      64.867 109.531 196.554  1.00  0.00     0.198 C 
ATOM    338  C2'  DG A  15      63.738 108.896 195.748  1.00  0.00     0.199 C 
ATOM    339  C1'  DG A  15      64.116 109.353 194.341  1.00  0.00     0.262 C 
ATOM    340  O4'  DG A  15      64.764 110.609 194.474  1.00  0.00    -0.353 OA
BRANCH 337 341
ATOM    341  O3'  DG A  15      64.647 109.637 197.972  1.00  0.00    -0.279 OA
BRANCH 341 342
ATOM    342  P    DT A  16      64.902 108.379 198.951  1.00  0.00     0.408 P 
ATOM    343  OP2  DT A  16      65.986 108.772 199.887  1.00  0.00    -0.624 OA
ATOM    344  OP1  DT A  16      63.599 107.924 199.500  1.00  0.00    -0.624 OA
BRANCH 342 345
ATOM    345  O5'  DT A  16      65.475 107.246 197.988  1.00  0.00    -0.287 OA
BRANCH 345 346
ATOM    346  C5'  DT A  16      66.828 106.804 198.086  1.00  0.00     0.216 C 
BRANCH 346 347
ATOM    347  C4'  DT A  16      67.586 107.158 196.826  1.00  0.00     0.180 C 
ATOM    348  C3'  DT A  16      68.751 106.241 196.483  1.00  0.00     0.198 C 
ATOM    349  C2'  DT A  16      69.652 107.148 195.652  1.00  0.00     0.199 C 
ATOM    350  C1'  DT A  16      69.456 108.493 196.354  1.00  0.00     0.264 C 
ATOM    351  O4'  DT A  16      68.194 108.465 196.997  1.00  0.00    -0.353 OA
BRANCH 348 352
ATOM    352  O3'  DT A  16      68.326 105.092 195.753  1.00  0.00    -0.279 OA
BRANCH 352 353
ATOM    353  P    DT A  17      69.155 103.716 195.865  1.00  0.00     0.408 P 
ATOM    354  OP2  DT A  17      70.425 103.978 196.589  1.00  0.00    -0.624 OA
ATOM    355  OP1  DT A  17      68.218 102.686 196.379  1.00  0.00    -0.624 OA
BRANCH 353 356
ATOM    356  O5'  DT A  17      69.501 103.342 194.352  1.00  0.00    -0.287 OA
BRANCH 356 357
ATOM    357  C5'  DT A  17      68.707 103.821 193.264  1.00  0.00     0.216 C 
BRANCH 357 358
ATOM    358  C4'  DT A  17      69.388 103.526 191.946  1.00  0.00     0.180 C 
ATOM    359  C3'  DT A  17      70.039 102.151 191.844  1.00  0.00     0.198 C 
ATOM    360  C2'  DT A  17      71.469 102.416 192.306  1.00  0.00     0.199 C 
ATOM    361  C1'  DT A  17      71.710 103.807 191.728  1.00  0.00     0.264 C 
ATOM    362  O4'  DT A  17      70.468 104.483 191.755  1.00  0.00    -0.353 OA
BRANCH 359 363
ATOM    363  O3'  DT A  17      69.975 101.652 190.507  1.00  0.00    -0.279 OA
BRANCH 363 364
ATOM    364  P    DG A  18      69.405 100.173 190.229  1.00  0.00     0.408 P 
ATOM    365  OP2  DG A  18      68.177  99.990 191.044  1.00  0.00    -0.624 OA
ATOM    366  OP1  DG A  18      69.346  99.975 188.756  1.00  0.00    -0.624 OA
BRANCH 364 367
ATOM    367  O5'  DG A  18      70.538  99.212 190.806  1.00  0.00    -0.287 OA
BRANCH 367 368
ATOM    368  C5'  DG A  18      70.270  98.334 191.899  1.00  0.00     0.216 C 
BRANCH 368 369
ATOM    369  C4'  DG A  18      71.054  98.766 193.117  1.00  0.00     0.180 C 
ATOM    370  O4'  DG A  18      70.310  98.381 194.304  1.00  0.00    -0.353 OA
ATOM    371  C1'  DG A  18      70.981  97.328 194.971  1.00  0.00     0.262 C 
ATOM    372  C2'  DG A  18      72.097  96.840 194.050  1.00  0.00     0.199 C 
ATOM    373  C3'  DG A  18      72.422  98.113 193.278  1.00  0.00     0.198 C 
BRANCH 371 374
ATOM    374  N9   DG A  18      69.999  96.300 195.305  1.00  0.00    -0.293 N 
ATOM    375  C4   DG A  18      69.712  95.174 194.572  1.00  0.00     0.187 A 
ATOM    376  C5   DG A  18      68.728  94.518 195.281  1.00  0.00     0.173 A 
ATOM    377  N3   DG A  18      70.291  94.817 193.408  1.00  0.00    -0.044 NA
ATOM    378  C6   DG A  18      68.215  93.297 194.768  1.00  0.00     0.292 A 
ATOM    379  N7   DG A  18      68.403  95.217 196.436  1.00  0.00    -0.234 NA
ATOM    380  N1   DG A  18      68.827  92.951 193.568  1.00  0.00    -0.153 N 
ATOM    381  O6   DG A  18      67.343  92.565 195.246  1.00  0.00    -0.265 OA
ATOM    382  C2   DG A  18      69.804  93.681 192.943  1.00  0.00     0.703 A 
ATOM    383  H1   DG A  18      68.524  92.095 193.130  1.00  0.00     0.187 HD
ATOM    384  C8   DG A  18      69.181  96.263 196.408  1.00  0.00     0.214 A 
BRANCH 382 385
ATOM    385  N2   DG A  18      70.269  93.183 191.794  1.00  0.00    -0.233 N 
ATOM    386  H21  DG A  18      71.203  93.423 191.497  1.00  0.00     0.174 HD
ATOM    387  H22  DG A  18      69.694  92.575 191.230  1.00  0.00     0.174 HD
ENDBRANCH 382 385
ENDBRANCH 371 374
BRANCH 372 388
ATOM    388  O2'  DG A  18      73.193  96.427 194.844  1.00  0.00    -0.388 OA
ATOM    389 2'HO  DG A  18      73.986  96.752 194.413  1.00  0.00     0.210 HD
ENDBRANCH 372 388
BRANCH 373 390
ATOM    390  O3'  DG A  18      73.328  98.958 193.985  1.00  0.00    -0.279 OA
BRANCH 390 391
ATOM    391  P    DG A  19      74.820  99.179 193.424  1.00  0.00     0.408 P 
ATOM    392  OP1  DG A  19      74.696  99.808 192.084  1.00  0.00    -0.624 OA
ATOM    393  OP2  DG A  19      75.571  97.906 193.567  1.00  0.00    -0.624 OA
BRANCH 391 394
ATOM    394  O5'  DG A  19      75.450 100.262 194.411  1.00  0.00    -0.287 OA
BRANCH 394 395
ATOM    395  C5'  DG A  19      76.829 100.217 194.778  1.00  0.00     0.216 C 
BRANCH 395 396
ATOM    396  C4'  DG A  19      77.271 101.563 195.303  1.00  0.00     0.180 C 
ATOM    397  O4'  DG A  19      78.679 101.743 194.981  1.00  0.00    -0.353 OA
ATOM    398  C1'  DG A  19      78.842 102.890 194.172  1.00  0.00     0.262 C 
ATOM    399  C2'  DG A  19      77.476 103.190 193.562  1.00  0.00     0.199 C 
ATOM    400  C3'  DG A  19      76.549 102.764 194.696  1.00  0.00     0.198 C 
BRANCH 398 401
ATOM    401  N9   DG A  19      79.892 102.616 193.196  1.00  0.00    -0.293 N 
ATOM    402  C4   DG A  19      80.982 103.408 192.924  1.00  0.00     0.187 A 
ATOM    403  N3   DG A  19      81.271 104.587 193.514  1.00  0.00    -0.044 NA
ATOM    404  C5   DG A  19      81.685 102.740 191.943  1.00  0.00     0.173 A 
ATOM    405  C2   DG A  19      82.387 105.112 193.043  1.00  0.00     0.703 A 
ATOM    406  N1   DG A  19      83.160 104.531 192.071  1.00  0.00    -0.153 N 
ATOM    407  H1   DG A  19      83.995 105.013 191.781  1.00  0.00     0.187 HD
ATOM    408  C6   DG A  19      82.883 103.319 191.448  1.00  0.00     0.292 A 
ATOM    409  O6   DG A  19      83.649 102.886 190.580  1.00  0.00    -0.265 OA
ATOM    410  N7   DG A  19      81.050 101.553 191.603  1.00  0.00    -0.234 NA
ATOM    411  C8   DG A  19      79.995 101.523 192.370  1.00  0.00     0.214 A 
BRANCH 405 412
ATOM    412  N2   DG A  19      82.822 106.282 193.519  1.00  0.00    -0.233 N 
ATOM    413  H21  DG A  19      82.435 107.137 193.146  1.00  0.00     0.174 HD
ATOM    414  H22  DG A  19      83.527 106.313 194.240  1.00  0.00     0.174 HD
ENDBRANCH 405 412
ENDBRANCH 398 401
BRANCH 399 415
ATOM    415  O2'  DG A  19      77.380 104.582 193.322  1.00  0.00    -0.388 OA
ATOM    416 2'HO  DG A  19      78.274 104.895 193.184  1.00  0.00     0.210 HD
ENDBRANCH 399 415
BRANCH 400 417
ATOM    417  O3'  DG A  19      76.363 103.801 195.657  1.00  0.00    -0.279 OA
BRANCH 417 418
ATOM    418  P    DG A  20      75.472 103.527 196.968  1.00  0.00     0.408 P 
ATOM    419  OP2  DG A  20      74.886 104.816 197.416  1.00  0.00    -0.624 OA
ATOM    420  OP1  DG A  20      74.576 102.383 196.658  1.00  0.00    -0.624 OA
BRANCH 418 421
ATOM    421  O5'  DG A  20      76.527 103.050 198.062  1.00  0.00    -0.287 OA
BRANCH 421 422
ATOM    422  C5'  DG A  20      76.183 103.003 199.446  1.00  0.00     0.216 C 
BRANCH 422 423
ATOM    423  C4'  DG A  20      77.294 103.597 200.281  1.00  0.00     0.180 C 
ATOM    424  C3'  DG A  20      78.412 104.276 199.497  1.00  0.00     0.198 C 
ATOM    425  C2'  DG A  20      79.613 104.109 200.419  1.00  0.00     0.199 C 
ATOM    426  C1'  DG A  20      79.355 102.713 200.984  1.00  0.00     0.262 C 
ATOM    427  O4'  DG A  20      77.951 102.526 201.015  1.00  0.00    -0.353 OA
BRANCH 424 428
ATOM    428  O3'  DG A  20      78.117 105.646 199.237  1.00  0.00    -0.279 OA
BRANCH 428 429
ATOM    429  P    DA A  21      78.407 106.262 197.779  1.00  0.00     0.408 P 
ATOM    430  OP2  DA A  21      78.752 105.147 196.862  1.00  0.00    -0.624 OA
ATOM    431  OP1  DA A  21      77.269 107.158 197.448  1.00  0.00    -0.624 OA
BRANCH 429 432
ATOM    432  O5'  DA A  21      79.700 107.171 197.988  1.00  0.00    -0.287 OA
BRANCH 432 433
ATOM    433  C5'  DA A  21      80.668 107.331 196.950  1.00  0.00     0.216 C 
BRANCH 433 434
ATOM    434  C4'  DA A  21      81.724 108.325 197.374  1.00  0.00     0.180 C 
ATOM    435  O4'  DA A  21      81.401 109.621 196.802  1.00  0.00    -0.353 OA
ATOM    436  C1'  DA A  21      81.731 110.646 197.722  1.00  0.00     0.262 C 
ATOM    437  C2'  DA A  21      82.389 109.993 198.939  1.00  0.00     0.199 C 
ATOM    438  C3'  DA A  21      81.820 108.579 198.872  1.00  0.00     0.198 C 
BRANCH 436 439
ATOM    439  N9   DA A  21      80.512 111.384 198.046  1.00  0.00    -0.294 N 
ATOM    440  C8   DA A  21      80.097 112.591 197.542  1.00  0.00     0.214 A 
ATOM    441  N7   DA A  21      78.946 112.997 198.023  1.00  0.00    -0.236 NA
ATOM    442  C5   DA A  21      78.581 111.991 198.906  1.00  0.00     0.149 A 
ATOM    443  C6   DA A  21      77.460 111.822 199.739  1.00  0.00     0.155 A 
ATOM    444  C4   DA A  21      79.537 110.992 198.933  1.00  0.00     0.167 A 
ATOM    445  N1   DA A  21      77.402 110.706 200.496  1.00  0.00    -0.222 NA
ATOM    446  C2   DA A  21      78.407 109.824 200.416  1.00  0.00     0.237 A 
ATOM    447  N3   DA A  21      79.511 109.870 199.673  1.00  0.00    -0.222 NA
BRANCH 443 448
ATOM    448  N6   DA A  21      76.459 112.697 199.819  1.00  0.00    -0.382 N 
ATOM    449  H61  DA A  21      75.779 112.755 199.074  1.00  0.00     0.157 HD
ATOM    450  H62  DA A  21      76.383 113.297 200.627  1.00  0.00     0.157 HD
ENDBRANCH 443 448
ENDBRANCH 436 439
BRANCH 437 451
ATOM    451  O2'  DA A  21      83.789 109.988 198.745  1.00  0.00    -0.388 OA
ATOM    452 2'HO  DA A  21      84.127 110.770 199.184  1.00  0.00     0.210 HD
ENDBRANCH 437 451
BRANCH 438 453
ATOM    453  O3'  DA A  21      82.667 107.627 199.510  1.00  0.00    -0.279 OA
BRANCH 453 454
ATOM    454  P    DG A  22      82.297 107.080 200.978  1.00  0.00     0.408 P 
ATOM    455  OP2  DG A  22      80.920 107.524 201.316  1.00  0.00    -0.624 OA
ATOM    456  OP1  DG A  22      82.627 105.633 201.001  1.00  0.00    -0.624 OA
BRANCH 454 457
ATOM    457  O5'  DG A  22      83.324 107.833 201.938  1.00  0.00    -0.287 OA
BRANCH 457 458
ATOM    458  C5'  DG A  22      84.539 107.211 202.357  1.00  0.00     0.216 C 
BRANCH 458 459
ATOM    459  C4'  DG A  22      84.572 107.103 203.863  1.00  0.00     0.180 C 
ATOM    460  O4'  DG A  22      83.689 108.118 204.425  1.00  0.00    -0.353 OA
ATOM    461  C1'  DG A  22      82.898 107.547 205.451  1.00  0.00     0.262 C 
ATOM    462  C2'  DG A  22      83.549 106.213 205.807  1.00  0.00     0.199 C 
ATOM    463  C3'  DG A  22      84.072 105.786 204.443  1.00  0.00     0.198 C 
BRANCH 461 464
ATOM    464  N9   DG A  22      81.527 107.421 204.964  1.00  0.00    -0.293 N 
ATOM    465  C8   DG A  22      80.852 106.259 204.681  1.00  0.00     0.214 A 
ATOM    466  N7   DG A  22      79.632 106.459 204.267  1.00  0.00    -0.234 NA
ATOM    467  C5   DG A  22      79.491 107.841 204.274  1.00  0.00     0.173 A 
ATOM    468  C4   DG A  22      80.653 108.449 204.702  1.00  0.00     0.187 A 
ATOM    469  C6   DG A  22      78.383 108.655 203.921  1.00  0.00     0.292 A 
ATOM    470  N3   DG A  22      80.910 109.767 204.843  1.00  0.00    -0.044 NA
ATOM    471  C2   DG A  22      79.869 110.510 204.512  1.00  0.00     0.703 A 
ATOM    472  N1   DG A  22      78.672 110.006 204.075  1.00  0.00    -0.153 N 
ATOM    473  H1   DG A  22      77.942 110.662 203.845  1.00  0.00     0.187 HD
ATOM    474  O6   DG A  22      77.266 108.307 203.522  1.00  0.00    -0.265 OA
BRANCH 471 475
ATOM    475  N2   DG A  22      79.950 111.841 204.592  1.00  0.00    -0.233 N 
ATOM    476  H21  DG A  22      79.515 112.408 203.878  1.00  0.00     0.174 HD
ATOM    477  H22  DG A  22      80.439 112.277 205.361  1.00  0.00     0.174 HD
ENDBRANCH 471 475
ENDBRANCH 461 464
BRANCH 462 478
ATOM    478  O2'  DG A  22      84.611 106.451 206.712  1.00  0.00    -0.388 OA
ATOM    479 2'HO  DG A  22      84.466 105.874 207.462  1.00  0.00     0.210 HD
ENDBRANCH 462 478
BRANCH 463 480
ATOM    480  O3'  DG A  22      85.115 104.818 204.538  1.00  0.00    -0.279 OA
BRANCH 480 481
ATOM    481  P    DA A  23      84.842 103.301 204.078  1.00  0.00     0.408 P 
ATOM    482  OP2  DA A  23      83.472 103.214 203.512  1.00  0.00    -0.624 OA
ATOM    483  OP1  DA A  23      86.002 102.872 203.257  1.00  0.00    -0.624 OA
BRANCH 481 484
ATOM    484  O5'  DA A  23      84.868 102.473 205.440  1.00  0.00    -0.287 OA
BRANCH 484 485
ATOM    485  C5'  DA A  23      83.701 102.354 206.251  1.00  0.00     0.216 C 
BRANCH 485 486
ATOM    486  C4'  DA A  23      83.566 100.940 206.770  1.00  0.00     0.180 C 
ATOM    487  O4'  DA A  23      82.745 100.172 205.845  1.00  0.00    -0.353 OA
ATOM    488  C1'  DA A  23      83.292  98.875 205.684  1.00  0.00     0.262 C 
ATOM    489  C2'  DA A  23      84.372  98.715 206.752  1.00  0.00     0.199 C 
ATOM    490  C3'  DA A  23      84.864 100.151 206.873  1.00  0.00     0.198 C 
BRANCH 488 491
ATOM    491  N9   DA A  23      83.794  98.752 204.315  1.00  0.00    -0.294 N 
ATOM    492  C8   DA A  23      83.724  99.686 203.311  1.00  0.00     0.214 A 
ATOM    493  N7   DA A  23      84.259  99.289 202.181  1.00  0.00    -0.236 NA
ATOM    494  C5   DA A  23      84.715  98.008 202.461  1.00  0.00     0.149 A 
ATOM    495  C6   DA A  23      85.378  97.049 201.678  1.00  0.00     0.155 A 
ATOM    496  C4   DA A  23      84.436  97.665 203.772  1.00  0.00     0.167 A 
ATOM    497  N1   DA A  23      85.694  95.871 202.259  1.00  0.00    -0.222 NA
ATOM    498  C2   DA A  23      85.359  95.681 203.542  1.00  0.00     0.237 A 
ATOM    499  N3   DA A  23      84.734  96.505 204.381  1.00  0.00    -0.222 NA
BRANCH 495 500
ATOM    500  N6   DA A  23      85.710  97.238 200.401  1.00  0.00    -0.382 N 
ATOM    501  H62  DA A  23      85.664  96.470 199.744  1.00  0.00     0.157 HD
ATOM    502  H61  DA A  23      86.010  98.151 200.092  1.00  0.00     0.157 HD
ENDBRANCH 495 500
ENDBRANCH 488 491
BRANCH 489 503
ATOM    503  O2'  DA A  23      83.763  98.276 207.952  1.00  0.00    -0.388 OA
ATOM    504 2'HO  DA A  23      83.018  97.731 207.699  1.00  0.00     0.210 HD
ENDBRANCH 489 503
BRANCH 490 505
ATOM    505  O3'  DA A  23      85.539 100.400 208.102  1.00  0.00    -0.279 OA
BRANCH 505 506
ATOM    506  P    DG A  24      84.688 100.685 209.438  1.00  0.00     0.408 P 
ATOM    507  OP1  DG A  24      85.204  99.775 210.492  1.00  0.00    -0.624 OA
ATOM    508  OP2  DG A  24      83.242 100.668 209.097  1.00  0.00    -0.624 OA
BRANCH 506 509
ATOM    509  O5'  DG A  24      85.087 102.176 209.834  1.00  0.00    -0.287 OA
BRANCH 509 510
ATOM    510  C5'  DG A  24      86.268 102.446 210.589  1.00  0.00     0.216 C 
BRANCH 510 511
ATOM    511  C4'  DG A  24      87.330 103.044 209.697  1.00  0.00     0.180 C 
ATOM    512  O4'  DG A  24      86.828 104.284 209.132  1.00  0.00    -0.353 OA
ATOM    513  C1'  DG A  24      87.884 105.224 209.029  1.00  0.00     0.262 C 
ATOM    514  C2'  DG A  24      89.170 104.543 209.502  1.00  0.00     0.199 C 
ATOM    515  C3'  DG A  24      88.618 103.441 210.401  1.00  0.00     0.198 C 
BRANCH 513 516
ATOM    516  N9   DG A  24      87.525 106.404 209.809  1.00  0.00    -0.293 N 
ATOM    517  C4   DG A  24      86.261 106.907 209.995  1.00  0.00     0.187 A 
ATOM    518  N3   DG A  24      85.122 106.398 209.481  1.00  0.00    -0.044 NA
ATOM    519  C5   DG A  24      86.421 108.013 210.803  1.00  0.00     0.173 A 
ATOM    520  C2   DG A  24      84.063 107.103 209.836  1.00  0.00     0.703 A 
ATOM    521  N1   DG A  24      84.114 108.216 210.634  1.00  0.00    -0.153 N 
ATOM    522  H1   DG A  24      83.245 108.683 210.845  1.00  0.00     0.187 HD
ATOM    523  C6   DG A  24      85.273 108.757 211.177  1.00  0.00     0.292 A 
ATOM    524  O6   DG A  24      85.205 109.767 211.886  1.00  0.00    -0.265 OA
ATOM    525  N7   DG A  24      87.760 108.205 211.116  1.00  0.00    -0.234 NA
ATOM    526  C8   DG A  24      88.376 107.231 210.503  1.00  0.00     0.214 A 
BRANCH 520 527
ATOM    527  N2   DG A  24      82.851 106.736 209.412  1.00  0.00    -0.233 N 
ATOM    528  H21  DG A  24      82.604 106.883 208.445  1.00  0.00     0.174 HD
ATOM    529  H22  DG A  24      82.185 106.324 210.050  1.00  0.00     0.174 HD
ENDBRANCH 520 527
ENDBRANCH 513 516
BRANCH 514 530
ATOM    530  O2'  DG A  24      89.833 103.997 208.378  1.00  0.00    -0.388 OA
ATOM    531 2'HO  DG A  24      89.327 104.259 207.608  1.00  0.00     0.210 HD
ENDBRANCH 514 530
BRANCH 515 532
ATOM    532  O3'  DG A  24      89.509 102.335 210.512  1.00  0.00    -0.279 OA
BRANCH 532 533
ATOM    533  P    DC A  25      89.493 101.182 209.393  1.00  0.00     0.408 P 
ATOM    534  OP2  DC A  25      89.272  99.879 210.071  1.00  0.00    -0.624 OA
ATOM    535  OP1  DC A  25      88.556 101.622 208.328  1.00  0.00    -0.624 OA
BRANCH 533 536
ATOM    536  O5'  DC A  25      90.973 101.198 208.805  1.00  0.00    -0.287 OA
BRANCH 536 537
ATOM    537  C5'  DC A  25      91.243 100.762 207.472  1.00  0.00     0.216 C 
BRANCH 537 538
ATOM    538  C4'  DC A  25      92.013 101.825 206.722  1.00  0.00     0.180 C 
ATOM    539  O4'  DC A  25      93.410 101.742 207.110  1.00  0.00    -0.353 OA
ATOM    540  C1'  DC A  25      94.235 101.994 205.987  1.00  0.00     0.264 C 
ATOM    541  C2'  DC A  25      93.332 102.347 204.804  1.00  0.00     0.199 C 
ATOM    542  C3'  DC A  25      92.018 101.684 205.205  1.00  0.00     0.198 C 
ATOM    543  O2'  DC A  25      93.194 103.753 204.744  1.00  0.00    -0.388 OA
ATOM    544  O3'  DC A  25      90.899 102.338 204.611  1.00  0.00    -0.279 OA
ATOM    545  P    DG A  26      89.481 101.581 204.514  1.00  0.00     0.408 P 
ATOM    546  OP1  DG A  26      88.474 102.461 205.161  1.00  0.00    -0.624 OA
ATOM    547  OP2  DG A  26      89.635 100.181 204.977  1.00  0.00    -0.624 OA
ATOM    548  O5'  DG A  26      89.165 101.549 202.952  1.00  0.00    -0.287 OA
ATOM    549  C5'  DG A  26      89.571 102.614 202.093  1.00  0.00     0.216 C 
ATOM    550  C4'  DG A  26      90.317 102.063 200.899  1.00  0.00     0.180 C 
ATOM    551  O4'  DG A  26      91.601 101.554 201.352  1.00  0.00    -0.353 OA
ATOM    552  C3'  DG A  26      89.646 100.885 200.202  1.00  0.00     0.198 C 
ATOM    553  C1'  DG A  26      91.877 100.315 200.725  1.00  0.00     0.262 C 
ATOM    554  N9   DG A  26      91.880  99.276 201.751  1.00  0.00    -0.293 N 
ATOM    555  C2'  DG A  26      90.828 100.110 199.633  1.00  0.00     0.199 C 
ATOM    556  C8   DG A  26      90.819  98.866 202.521  1.00  0.00     0.214 A 
ATOM    557  C4   DG A  26      92.956  98.516 202.141  1.00  0.00     0.187 A 
ATOM    558  N7   DG A  26      91.129  97.919 203.363  1.00  0.00    -0.234 NA
ATOM    559  C5   DG A  26      92.479  97.687 203.135  1.00  0.00     0.173 A 
ATOM    560  C6   DG A  26      93.372  96.774 203.751  1.00  0.00     0.292 A 
ATOM    561  N1   DG A  26      94.651  96.868 203.214  1.00  0.00    -0.153 N 
ATOM    562  O6   DG A  26      93.146  95.961 204.653  1.00  0.00    -0.265 OA
ATOM    563  C2   DG A  26      95.024  97.731 202.217  1.00  0.00     0.703 A 
ATOM    564  H1   DG A  26      95.356  96.253 203.588  1.00  0.00     0.187 HD
ATOM    565  N2   DG A  26      96.302  97.669 201.835  1.00  0.00    -0.233 N 
ATOM    566  N3   DG A  26      94.206  98.591 201.636  1.00  0.00    -0.044 NA
ATOM    567  H21  DG A  26      96.625  98.287 201.100  1.00  0.00     0.174 HD
ATOM    568  H22  DG A  26      96.940  97.015 202.265  1.00  0.00     0.174 HD
ATOM    569  O2'  DG A  26      91.296 100.701 198.436  1.00  0.00    -0.388 OA
ATOM    570 2'HO  DG A  26      90.542 101.130 198.028  1.00  0.00     0.210 HD
ATOM    571  O3'  DG A  26      88.744 101.318 199.187  1.00  0.00    -0.279 OA
ATOM    572  P    DC A  27      87.347 100.547 198.974  1.00  0.00     0.408 P 
ATOM    573  O5'  DC A  27      87.751  99.227 198.176  1.00  0.00    -0.287 OA
ATOM    574  OP1  DC A  27      86.505 101.392 198.090  1.00  0.00    -0.624 OA
ATOM    575  OP2  DC A  27      86.829 100.136 200.304  1.00  0.00    -0.624 OA
ATOM    576  C5'  DC A  27      87.767  99.202 196.747  1.00  0.00     0.216 C 
ATOM    577  C4'  DC A  27      88.971  98.432 196.251  1.00  0.00     0.180 C 
ATOM    578  O4'  DC A  27      89.956  98.334 197.316  1.00  0.00    -0.353 OA
ATOM    579  C3'  DC A  27      88.703  96.986 195.858  1.00  0.00     0.198 C 
ATOM    580  C1'  DC A  27      90.590  97.066 197.266  1.00  0.00     0.264 C 
ATOM    581  N1   DC A  27      90.301  96.347 198.518  1.00  0.00    -0.278 N 
ATOM    582  C2'  DC A  27      90.076  96.348 196.019  1.00  0.00     0.199 C 
ATOM    583  C2   DC A  27      90.975  95.149 198.779  1.00  0.00     0.352 A 
ATOM    584  C6   DC A  27      89.391  96.834 199.415  1.00  0.00     0.102 A 
ATOM    585  N3   DC A  27      90.720  94.483 199.926  1.00  0.00    -0.177 NA
ATOM    586  O2   DC A  27      91.792  94.724 197.949  1.00  0.00    -0.244 OA
ATOM    587  C4   DC A  27      89.833  94.969 200.796  1.00  0.00     0.128 A 
ATOM    588  N4   DC A  27      89.619  94.278 201.914  1.00  0.00    -0.384 N 
ATOM    589  C5   DC A  27      89.129  96.184 200.556  1.00  0.00     0.067 A 
ATOM    590  H42  DC A  27      90.125  93.418 202.073  1.00  0.00     0.157 HD
ATOM    591  H41  DC A  27      88.956  94.611 202.600  1.00  0.00     0.157 HD
ATOM    592  O2'  DC A  27      90.922  96.667 194.930  1.00  0.00    -0.388 OA
ATOM    593 2'HO  DC A  27      90.364  97.027 194.242  1.00  0.00     0.210 HD
ATOM    594  O3'  DC A  27      88.205  96.883 194.527  1.00  0.00    -0.279 OA
ATOM    595  P    DT A  28      87.331  95.602 194.100  1.00  0.00     0.408 P 
ATOM    596  OP1  DT A  28      86.816  95.852 192.729  1.00  0.00    -0.624 OA
ATOM    597  OP2  DT A  28      86.379  95.294 195.197  1.00  0.00    -0.624 OA
ATOM    598  O5'  DT A  28      88.397  94.418 194.021  1.00  0.00    -0.287 OA
ATOM    599  C5'  DT A  28      89.504  94.487 193.124  1.00  0.00     0.216 C 
ATOM    600  C4'  DT A  28      90.338  93.232 193.229  1.00  0.00     0.180 C 
ATOM    601  O4'  DT A  28      91.012  93.218 194.517  1.00  0.00    -0.353 OA
ATOM    602  C3'  DT A  28      89.565  91.921 193.198  1.00  0.00     0.198 C 
ATOM    603  C1'  DT A  28      91.063  91.892 195.016  1.00  0.00     0.264 C 
ATOM    604  C2'  DT A  28      90.510  90.973 193.926  1.00  0.00     0.199 C 
ATOM    605  N1   DT A  28      90.304  91.837 196.273  1.00  0.00    -0.280 N 
ATOM    606  O2'  DT A  28      91.577  90.571 193.089  1.00  0.00    -0.388 OA
ATOM    607 2'HO  DT A  28      91.372  90.882 192.207  1.00  0.00     0.210 HD
ATOM    608  C2   DT A  28      90.621  90.833 197.171  1.00  0.00     0.331 A 
ATOM    609  C6   DT A  28      89.312  92.750 196.551  1.00  0.00     0.104 A 
ATOM    610  N3   DT A  28      89.880  90.836 198.325  1.00  0.00    -0.275 N 
ATOM    611  O2   DT A  28      91.489  90.007 196.964  1.00  0.00    -0.246 OA
ATOM    612  C4   DT A  28      88.880  91.716 198.667  1.00  0.00     0.250 A 
ATOM    613  H3   DT A  28      90.097  90.109 198.991  1.00  0.00     0.173 HD
ATOM    614  O4   DT A  28      88.308  91.591 199.750  1.00  0.00    -0.268 OA
ATOM    615  C5   DT A  28      88.612  92.721 197.689  1.00  0.00     0.092 A 
ATOM    616  O3'  DT A  28      89.288  91.498 191.866  1.00  0.00    -0.279 OA
ATOM    617  P    DT A  29      88.104  90.445 191.592  1.00  0.00     0.408 P 
ATOM    618  OP1  DT A  29      87.974  90.294 190.121  1.00  0.00    -0.624 OA
ATOM    619  OP2  DT A  29      86.921  90.848 192.396  1.00  0.00    -0.624 OA
ATOM    620  O5'  DT A  29      88.659  89.073 192.187  1.00  0.00    -0.287 OA
ATOM    621  C5'  DT A  29      89.888  88.517 191.722  1.00  0.00     0.216 C 
ATOM    622  C4'  DT A  29      90.162  87.202 192.416  1.00  0.00     0.180 C 
ATOM    623  C3'  DT A  29      88.969  86.273 192.569  1.00  0.00     0.198 C 
ATOM    624  O4'  DT A  29      90.576  87.458 193.785  1.00  0.00    -0.353 OA
ATOM    625  O3'  DT A  29      88.721  85.527 191.380  1.00  0.00    -0.279 OA
ATOM    626  C2'  DT A  29      89.401  85.394 193.735  1.00  0.00     0.199 C 
ATOM    627  P    DC A  30      87.237  84.992 191.067  1.00  0.00     0.408 P 
ATOM    628  OP1  DC A  30      87.257  84.394 189.708  1.00  0.00    -0.624 OA
ATOM    629  O5'  DC A  30      87.021  83.818 192.122  1.00  0.00    -0.287 OA
ATOM    630  OP2  DC A  30      86.269  86.075 191.378  1.00  0.00    -0.624 OA
ATOM    631  C5'  DC A  30      87.941  82.734 192.215  1.00  0.00     0.216 C 
ATOM    632  C4'  DC A  30      87.667  81.921 193.458  1.00  0.00     0.180 C 
ATOM    633  O4'  DC A  30      87.979  82.719 194.630  1.00  0.00    -0.353 OA
ATOM    634  C3'  DC A  30      86.216  81.519 193.670  1.00  0.00     0.198 C 
ATOM    635  C1'  DC A  30      87.082  82.394 195.680  1.00  0.00     0.264 C 
ATOM    636  C2'  DC A  30      86.166  81.279 195.173  1.00  0.00     0.199 C 
ATOM    637  N1   DC A  30      86.357  83.615 196.073  1.00  0.00    -0.278 N 
ATOM    638  O2'  DC A  30      86.741  80.031 195.513  1.00  0.00    -0.388 OA
ATOM    639 2'HO  DC A  30      86.727  79.494 194.721  1.00  0.00     0.210 HD
ATOM    640  C2   DC A  30      85.822  83.692 197.361  1.00  0.00     0.352 A 
ATOM    641  C6   DC A  30      86.205  84.655 195.199  1.00  0.00     0.102 A 
ATOM    642  N3   DC A  30      85.152  84.805 197.733  1.00  0.00    -0.177 NA
ATOM    643  O2   DC A  30      85.975  82.736 198.133  1.00  0.00    -0.244 OA
ATOM    644  C4   DC A  30      85.012  85.816 196.876  1.00  0.00     0.128 A 
ATOM    645  N4   DC A  30      84.347  86.893 197.290  1.00  0.00    -0.384 N 
ATOM    646  C5   DC A  30      85.548  85.767 195.556  1.00  0.00     0.067 A 
ATOM    647  H42  DC A  30      83.971  86.919 198.228  1.00  0.00     0.157 HD
ATOM    648  H41  DC A  30      84.218  87.682 196.672  1.00  0.00     0.157 HD
ATOM    649  O3'  DC A  30      85.871  80.359 192.917  1.00  0.00    -0.279 OA
ATOM    650  P    DA A  31      84.343  80.120 192.474  1.00  0.00     0.408 P 
ATOM    651  OP1  DA A  31      84.334  78.992 191.508  1.00  0.00    -0.624 OA
ATOM    652  O5'  DA A  31      83.627  79.634 193.812  1.00  0.00    -0.287 OA
ATOM    653  OP2  DA A  31      83.756  81.427 192.081  1.00  0.00    -0.624 OA
ATOM    654  C5'  DA A  31      84.046  78.444 194.478  1.00  0.00     0.216 C 
ATOM    655  C4'  DA A  31      83.207  78.214 195.713  1.00  0.00     0.180 C 
ATOM    656  O4'  DA A  31      83.595  79.169 196.738  1.00  0.00    -0.353 OA
ATOM    657  C3'  DA A  31      81.712  78.440 195.546  1.00  0.00     0.198 C 
ATOM    658  C1'  DA A  31      82.452  79.565 197.477  1.00  0.00     0.262 C 
ATOM    659  N9   DA A  31      82.263  81.005 197.303  1.00  0.00    -0.294 N 
ATOM    660  C2'  DA A  31      81.271  78.733 196.975  1.00  0.00     0.199 C 
ATOM    661  C4   DA A  31      81.630  81.853 198.178  1.00  0.00     0.167 A 
ATOM    662  C8   DA A  31      82.667  81.788 196.250  1.00  0.00     0.214 A 
ATOM    663  C5   DA A  31      81.687  83.106 197.597  1.00  0.00     0.149 A 
ATOM    664  N3   DA A  31      81.065  81.536 199.356  1.00  0.00    -0.222 NA
ATOM    665  N7   DA A  31      82.349  83.052 196.379  1.00  0.00    -0.236 NA
ATOM    666  C6   DA A  31      81.096  84.166 198.308  1.00  0.00     0.155 A 
ATOM    667  N1   DA A  31      80.517  83.881 199.494  1.00  0.00    -0.222 NA
ATOM    668  C2   DA A  31      80.539  82.615 199.930  1.00  0.00     0.237 A 
ATOM    669  O2'  DT A  29      90.347  84.425 193.321  1.00  0.00    -0.388 OA
ATOM    670  C1'  DT A  29      90.106  86.417 194.626  1.00  0.00     0.264 C 
ATOM    671 2'HO  DT A  29      90.330  84.414 192.363  1.00  0.00     0.210 HD
ATOM    672  N1   DT A  29      89.231  87.004 195.651  1.00  0.00    -0.280 N 
ATOM    673  C2   DT A  29      89.118  86.342 196.861  1.00  0.00     0.331 A 
ATOM    674  C6   DT A  29      88.544  88.174 195.419  1.00  0.00     0.104 A 
ATOM    675  O2   DT A  29      89.709  85.306 197.107  1.00  0.00    -0.246 OA
ATOM    676  N3   DT A  29      88.286  86.937 197.773  1.00  0.00    -0.275 N 
ATOM    677  C4   DT A  29      87.574  88.102 197.608  1.00  0.00     0.250 A 
ATOM    678  H3   DT A  29      88.187  86.468 198.661  1.00  0.00     0.173 HD
ATOM    679  O4   DT A  29      86.864  88.510 198.526  1.00  0.00    -0.268 OA
ATOM    680  C5   DT A  29      87.743  88.727 196.335  1.00  0.00     0.092 A 
ATOM    681 2'HO  DC A  25      92.279 103.928 204.516  1.00  0.00     0.210 HD
BRANCH 540 682
ATOM    682  N1   DC A  25      95.078 100.810 205.758  1.00  0.00    -0.278 N 
ATOM    683  C2   DC A  25      96.111 100.889 204.820  1.00  0.00     0.352 A 
ATOM    684  N3   DC A  25      96.888  99.805 204.600  1.00  0.00    -0.177 NA
ATOM    685  O2   DC A  25      96.292 101.953 204.211  1.00  0.00    -0.244 OA
ATOM    686  C4   DC A  25      96.667  98.678 205.277  1.00  0.00     0.128 A 
ATOM    687  N4   DC A  25      97.463  97.637 205.028  1.00  0.00    -0.384 N 
ATOM    688  C5   DC A  25      95.622  98.568 206.240  1.00  0.00     0.067 A 
ATOM    689  H42  DC A  25      98.208  97.726 204.352  1.00  0.00     0.157 HD
ATOM    690  H41  DC A  25      97.330  96.765 205.520  1.00  0.00     0.157 HD
ATOM    691  C6   DC A  25      94.860  99.650 206.447  1.00  0.00     0.102 A 
ENDBRANCH 540 682
BRANCH 666 692
ATOM    692  N6   DA A  31      81.077  85.426 197.876  1.00  0.00    -0.382 N 
ATOM    693  H62  DA A  31      81.857  85.786 197.340  1.00  0.00     0.157 HD
ATOM    694  H61  DA A  31      80.288  86.019 198.082  1.00  0.00     0.157 HD
ENDBRANCH 666 692
BRANCH 660 695
ATOM    695  O2'  DA A  31      81.196  77.546 197.741  1.00  0.00    -0.388 OA
ATOM    696 2'HO  DA A  31      81.236  77.809 198.661  1.00  0.00     0.210 HD
ENDBRANCH 660 695
BRANCH 657 697
ATOM    697  O3'  DA A  31      81.058  77.299 194.997  1.00  0.00    -0.279 OA
BRANCH 697 698
ATOM    698  P    DA A  32      79.641  77.473 194.256  1.00  0.00     0.408 P 
ATOM    699  OP2  DA A  32      79.772  78.543 193.236  1.00  0.00    -0.624 OA
ATOM    700  OP1  DA A  32      79.192  76.117 193.844  1.00  0.00    -0.624 OA
BRANCH 698 701
ATOM    701  O5'  DA A  32      78.664  77.990 195.405  1.00  0.00    -0.287 OA
ATOM    702  C5'  DA A  32      78.362  77.171 196.532  1.00  0.00     0.216 C 
ATOM    703  C4'  DA A  32      77.631  77.974 197.586  1.00  0.00     0.180 C 
ATOM    704  C3'  DA A  32      76.256  78.488 197.194  1.00  0.00     0.198 C 
ATOM    705  O4'  DA A  32      78.357  79.192 197.872  1.00  0.00    -0.353 OA
ATOM    706  O3'  DA A  32      75.265  77.470 197.313  1.00  0.00    -0.279 OA
ATOM    707  C2'  DA A  32      76.032  79.635 198.180  1.00  0.00     0.199 C 
ATOM    708  P    DT A  33      73.987  77.480 196.336  1.00  0.00     0.408 P 
ATOM    709  OP1  DT A  33      72.970  76.576 196.930  1.00  0.00    -0.624 OA
ATOM    710  OP2  DT A  33      74.461  77.242 194.949  1.00  0.00    -0.624 OA
ATOM    711  O5'  DT A  33      73.443  78.974 196.428  1.00  0.00    -0.287 OA
ATOM    712  C5'  DT A  33      72.733  79.428 197.580  1.00  0.00     0.216 C 
ATOM    713  C4'  DT A  33      72.234  80.837 197.362  1.00  0.00     0.180 C 
ATOM    714  O4'  DT A  33      73.357  81.753 197.395  1.00  0.00    -0.353 OA
ATOM    715  C3'  DT A  33      71.585  81.096 196.011  1.00  0.00     0.198 C 
ATOM    716  C1'  DT A  33      73.110  82.837 196.519  1.00  0.00     0.264 C 
ATOM    717  N1   DT A  33      74.234  82.933 195.576  1.00  0.00    -0.280 N 
ATOM    718  C2'  DT A  33      71.756  82.603 195.845  1.00  0.00     0.199 C 
ATOM    719  C2   DT A  33      74.777  84.183 195.343  1.00  0.00     0.331 A 
ATOM    720  C6   DT A  33      74.732  81.816 194.943  1.00  0.00     0.104 A 
ATOM    721  N3   DT A  33      75.816  84.208 194.449  1.00  0.00    -0.275 N 
ATOM    722  O2   DT A  33      74.371  85.195 195.888  1.00  0.00    -0.246 OA
ATOM    723  H3   DT A  33      76.219  85.112 194.255  1.00  0.00     0.173 HD
ATOM    724  C4   DT A  33      76.359  83.135 193.782  1.00  0.00     0.250 A 
ATOM    725  C5   DT A  33      75.748  81.877 194.079  1.00  0.00     0.092 A 
ATOM    726  O4   DT A  33      77.299  83.319 193.009  1.00  0.00    -0.268 OA
ATOM    727  O2'  DT A  33      70.767  83.311 196.568  1.00  0.00    -0.388 OA
ATOM    728 2'HO  DT A  33      69.993  82.750 196.610  1.00  0.00     0.210 HD
ATOM    729  O3'  DT A  33      70.218  80.696 196.007  1.00  0.00    -0.279 OA
ATOM    730  P    DG A  34      69.589  80.020 194.691  1.00  0.00     0.408 P 
ATOM    731  OP2  DG A  34      70.437  78.860 194.312  1.00  0.00    -0.624 OA
ATOM    732  OP1  DG A  34      68.140  79.818 194.943  1.00  0.00    -0.624 OA
ATOM    733  O5'  DG A  34      69.750  81.144 193.575  1.00  0.00    -0.287 OA
ATOM    734  C5'  DG A  34      69.679  80.820 192.187  1.00  0.00     0.216 C 
ATOM    735  C4'  DG A  34      69.376  82.061 191.381  1.00  0.00     0.180 C 
ATOM    736  O4'  DG A  34      68.044  82.526 191.727  1.00  0.00    -0.353 OA
ATOM    737  C3'  DG A  34      70.287  83.252 191.649  1.00  0.00     0.198 C 
ATOM    738  C1'  DG A  34      68.029  83.940 191.787  1.00  0.00     0.262 C 
ATOM    739  N9   DG A  34      67.690  84.339 193.149  1.00  0.00    -0.293 N 
ATOM    740  C2'  DG A  34      69.394  84.442 191.316  1.00  0.00     0.199 C 
ATOM    741  C8   DG A  34      67.908  83.628 194.303  1.00  0.00     0.214 A 
ATOM    742  C4   DG A  34      67.080  85.511 193.527  1.00  0.00     0.187 A 
ATOM    743  N7   DG A  34      67.488  84.242 195.374  1.00  0.00    -0.234 NA
ATOM    744  C5   DG A  34      66.960  85.435 194.898  1.00  0.00     0.173 A 
ATOM    745  C6   DG A  34      66.354  86.516 195.589  1.00  0.00     0.292 A 
ATOM    746  N1   DG A  34      65.962  87.525 194.717  1.00  0.00    -0.153 N 
ATOM    747  O6   DG A  34      66.153  86.643 196.803  1.00  0.00    -0.265 OA
ATOM    748  H1   DG A  34      65.521  88.336 195.120  1.00  0.00     0.187 HD
ATOM    749  C2   DG A  34      66.131  87.500 193.358  1.00  0.00     0.703 A 
ATOM    750  N2   DG A  34      65.690  88.571 192.690  1.00  0.00    -0.233 N 
ATOM    751  N3   DG A  34      66.692  86.503 192.701  1.00  0.00    -0.044 NA
ATOM    752  H22  DG A  34      65.259  89.339 193.180  1.00  0.00     0.174 HD
ATOM    753  H21  DG A  34      65.793  88.598 191.686  1.00  0.00     0.174 HD
ATOM    754  O2'  DG A  34      69.338  84.661 189.918  1.00  0.00    -0.388 OA
ATOM    755 2'HO  DG A  34      70.110  84.234 189.544  1.00  0.00     0.210 HD
ATOM    756  O3'  DG A  34      71.453  83.204 190.829  1.00  0.00    -0.279 OA
ATOM    757  P    DG A  35      72.817  83.895 191.332  1.00  0.00     0.408 P 
ATOM    758  OP2  DG A  35      73.132  83.385 192.691  1.00  0.00    -0.624 OA
ATOM    759  O5'  DG A  35      72.453  85.442 191.446  1.00  0.00    -0.287 OA
ATOM    760  OP1  DG A  35      73.813  83.735 190.243  1.00  0.00    -0.624 OA
ATOM    761  C5'  DG A  35      72.104  86.206 190.291  1.00  0.00     0.216 C 
ATOM    762  C4'  DG A  35      71.866  87.649 190.671  1.00  0.00     0.180 C 
ATOM    763  C3'  DG A  35      72.907  88.255 191.607  1.00  0.00     0.198 C 
ATOM    764  O4'  DG A  35      70.602  87.732 191.385  1.00  0.00    -0.353 OA
ATOM    765  C2'  DG A  35      72.094  89.245 192.436  1.00  0.00     0.199 C 
ATOM    766  O3'  DG A  35      73.948  88.900 190.876  1.00  0.00    -0.279 OA
ATOM    767  C1'  DG A  35      70.758  88.514 192.552  1.00  0.00     0.262 C 
ATOM    768  O2'  DG A  35      71.892  90.455 191.731  1.00  0.00    -0.388 OA
ATOM    769  N9   DG A  35      70.664  87.631 193.711  1.00  0.00    -0.293 N 
ATOM    770  C8   DG A  35      71.313  86.436 193.899  1.00  0.00     0.214 A 
ATOM    771  C4   DG A  35      69.899  87.835 194.835  1.00  0.00     0.187 A 
ATOM    772  N7   DG A  35      71.029  85.868 195.038  1.00  0.00    -0.234 NA
ATOM    773  C5   DG A  35      70.134  86.742 195.641  1.00  0.00     0.173 A 
ATOM    774  C6   DG A  35      69.474  86.663 196.895  1.00  0.00     0.292 A 
ATOM    775  N1   DG A  35      68.657  87.765 197.112  1.00  0.00    -0.153 N 
ATOM    776  O6   DG A  35      69.547  85.777 197.753  1.00  0.00    -0.265 OA
ATOM    777  C2   DG A  35      68.493  88.808 196.237  1.00  0.00     0.703 A 
ATOM    778  H1   DG A  35      68.149  87.793 197.981  1.00  0.00     0.187 HD
ATOM    779  N2   DG A  35      67.661  89.778 196.627  1.00  0.00    -0.233 N 
ATOM    780  N3   DG A  35      69.097  88.895 195.067  1.00  0.00    -0.044 NA
ATOM    781  H22  DG A  35      67.201  89.725 197.524  1.00  0.00     0.174 HD
ATOM    782  H21  DG A  35      67.506  90.569 196.019  1.00  0.00     0.174 HD
ATOM    783 2'HO  DG A  35      72.340  90.364 190.890  1.00  0.00     0.210 HD
ATOM    784  P    DC A  36      75.397  89.098 191.549  1.00  0.00     0.408 P 
ATOM    785  O5'  DC A  36      75.444  90.647 191.921  1.00  0.00    -0.287 OA
ATOM    786  OP2  DC A  36      75.455  88.315 192.810  1.00  0.00    -0.624 OA
ATOM    787  OP1  DC A  36      76.406  88.853 190.488  1.00  0.00    -0.624 OA
ATOM    788  C5'  DC A  36      76.604  91.221 192.526  1.00  0.00     0.216 C 
ATOM    789  C4'  DC A  36      76.307  92.624 193.005  1.00  0.00     0.180 C 
ATOM    790  C3'  DC A  36      74.935  92.820 193.646  1.00  0.00     0.198 C 
ATOM    791  O4'  DC A  36      76.342  93.519 191.857  1.00  0.00    -0.353 OA
ATOM    792  O3'  DC A  36      75.000  93.736 194.737  1.00  0.00    -0.279 OA
ATOM    793  C2'  DC A  36      74.086  93.360 192.500  1.00  0.00     0.199 C 
ATOM    794  P    DA A  37      75.057  93.181 196.245  1.00  0.00     0.408 P 
ATOM    795  OP2  DA A  37      76.041  92.071 196.308  1.00  0.00    -0.624 OA
ATOM    796  OP1  DA A  37      75.223  94.359 197.133  1.00  0.00    -0.624 OA
ATOM    797  O5'  DA A  37      73.604  92.575 196.490  1.00  0.00    -0.287 OA
ATOM    798  C5'  DA A  37      72.430  93.336 196.202  1.00  0.00     0.216 C 
ATOM    799  C4'  DA A  37      71.367  93.071 197.243  1.00  0.00     0.180 C 
ATOM    800  C3'  DA A  37      71.888  92.780 198.646  1.00  0.00     0.198 C 
ATOM    801  O4'  DA A  37      70.628  91.880 196.856  1.00  0.00    -0.353 OA
ATOM    802  O3'  DA A  37      72.029  93.974 199.412  1.00  0.00    -0.279 OA
ATOM    803  C2'  DA A  37      70.823  91.853 199.217  1.00  0.00     0.199 C 
ATOM    804  P    DT A  38      73.154  94.058 200.559  1.00  0.00     0.408 P 
ATOM    805  O5'  DT A  38      73.099  92.629 201.261  1.00  0.00    -0.287 OA
ATOM    806  OP1  DT A  38      72.711  95.080 201.542  1.00  0.00    -0.624 OA
ATOM    807  OP2  DT A  38      74.479  94.196 199.906  1.00  0.00    -0.624 OA
ATOM    808  C5'  DT A  38      72.108  92.327 202.243  1.00  0.00     0.216 C 
ATOM    809  C4'  DT A  38      72.344  90.947 202.811  1.00  0.00     0.180 C 
ATOM    810  C3'  DT A  38      73.726  90.719 203.407  1.00  0.00     0.198 C 
ATOM    811  O4'  DT A  38      72.246  89.971 201.742  1.00  0.00    -0.353 OA
ATOM    812  C2'  DT A  38      73.902  89.211 203.279  1.00  0.00     0.199 C 
ATOM    813  O3'  DT A  38      73.784  91.167 204.758  1.00  0.00    -0.279 OA
ATOM    814  O2'  DT A  38      73.227  88.526 204.317  1.00  0.00    -0.388 OA
ATOM    815  C1'  DT A  38      73.180  88.927 201.960  1.00  0.00     0.264 C 
ATOM    816 2'HO  DT A  38      73.835  88.473 205.056  1.00  0.00     0.210 HD
ATOM    817  N1   DT A  38      74.076  88.858 200.795  1.00  0.00    -0.280 N 
ATOM    818  C6   DT A  38      74.347  89.973 200.034  1.00  0.00     0.104 A 
ATOM    819  C2   DT A  38      74.637  87.633 200.486  1.00  0.00     0.331 A 
ATOM    820  C5   DT A  38      75.153  89.933 198.968  1.00  0.00     0.092 A 
ATOM    821  C4   DT A  38      75.767  88.702 198.582  1.00  0.00     0.250 A 
ATOM    822  N3   DT A  38      75.454  87.630 199.385  1.00  0.00    -0.275 N 
ATOM    823  O4   DT A  38      76.525  88.539 197.627  1.00  0.00    -0.268 OA
ATOM    824  H3   DT A  38      75.865  86.744 199.130  1.00  0.00     0.173 HD
ATOM    825  O2   DT A  38      74.429  86.625 201.137  1.00  0.00    -0.246 OA
ATOM    826  P    DT A  39      75.209  91.340 205.483  1.00  0.00     0.408 P 
ATOM    827  OP1  DT A  39      74.968  92.060 206.760  1.00  0.00    -0.624 OA
ATOM    828  OP2  DT A  39      76.174  91.896 204.500  1.00  0.00    -0.624 OA
ATOM    829  O5'  DT A  39      75.645  89.848 205.834  1.00  0.00    -0.287 OA
ATOM    830  C5'  DT A  39      76.913  89.336 205.427  1.00  0.00     0.216 C 
ATOM    831  C4'  DT A  39      76.926  87.830 205.544  1.00  0.00     0.180 C 
ATOM    832  C3'  DT A  39      78.306  87.199 205.654  1.00  0.00     0.198 C 
ATOM    833  O4'  DT A  39      76.355  87.259 204.334  1.00  0.00    -0.353 OA
ATOM    834  O3'  DT A  39      78.761  87.167 207.004  1.00  0.00    -0.279 OA
ATOM    835  C2'  DT A  39      78.074  85.808 205.078  1.00  0.00     0.199 C 
ATOM    836  P    DG A  40      80.329  87.330 207.325  1.00  0.00     0.408 P 
ATOM    837  OP1  DG A  40      80.466  87.465 208.798  1.00  0.00    -0.624 OA
ATOM    838  O5'  DG A  40      80.957  85.930 206.898  1.00  0.00    -0.287 OA
ATOM    839  OP2  DG A  40      80.887  88.383 206.437  1.00  0.00    -0.624 OA
ATOM    840  C5'  DG A  40      80.496  84.711 207.476  1.00  0.00     0.216 C 
ATOM    841  C4'  DG A  40      81.297  83.549 206.944  1.00  0.00     0.180 C 
ATOM    842  O4'  DG A  40      80.885  83.281 205.577  1.00  0.00    -0.353 OA
ATOM    843  C3'  DG A  40      82.799  83.780 206.855  1.00  0.00     0.198 C 
ATOM    844  C1'  DG A  40      82.017  82.945 204.793  1.00  0.00     0.262 C 
ATOM    845  C2'  DG A  40      83.213  82.831 205.737  1.00  0.00     0.199 C 
ATOM    846  N9   DG A  40      82.181  83.961 203.759  1.00  0.00    -0.293 N 
ATOM    847  O2'  DG A  40      83.298  81.498 206.205  1.00  0.00    -0.388 OA
ATOM    848 2'HO  DG A  40      83.358  81.545 207.159  1.00  0.00     0.210 HD
ATOM    849  C8   DG A  40      81.649  85.228 203.746  1.00  0.00     0.214 A 
ATOM    850  C4   DG A  40      82.904  83.834 202.599  1.00  0.00     0.187 A 
ATOM    851  N7   DG A  40      81.969  85.910 202.680  1.00  0.00    -0.234 NA
ATOM    852  C5   DG A  40      82.765  85.040 201.945  1.00  0.00     0.173 A 
ATOM    853  C6   DG A  40      83.411  85.217 200.693  1.00  0.00     0.292 A 
ATOM    854  N1   DG A  40      84.113  84.078 200.316  1.00  0.00    -0.153 N 
ATOM    855  O6   DG A  40      83.410  86.210 199.957  1.00  0.00    -0.265 OA
ATOM    856  C2   DG A  40      84.188  82.920 201.047  1.00  0.00     0.703 A 
ATOM    857  H1   DG A  40      84.605  84.109 199.437  1.00  0.00     0.187 HD
ATOM    858  N3   DG A  40      83.595  82.741 202.213  1.00  0.00    -0.044 NA
ATOM    859  N2   DG A  40      84.916  81.933 200.519  1.00  0.00    -0.233 N 
ATOM    860  H21  DG A  40      85.002  81.061 201.019  1.00  0.00     0.174 HD
ATOM    861  H22  DG A  40      85.374  82.057 199.626  1.00  0.00     0.174 HD
ATOM    862  O3'  DG A  40      83.448  83.486 208.089  1.00  0.00    -0.279 OA
ATOM    863  P    DA A  41      84.891  84.123 208.404  1.00  0.00     0.408 P 
ATOM    864  OP2  DA A  41      84.841  85.576 208.101  1.00  0.00    -0.624 OA
ATOM    865  OP1  DA A  41      85.285  83.671 209.762  1.00  0.00    -0.624 OA
ATOM    866  O5'  DA A  41      85.859  83.428 207.347  1.00  0.00    -0.287 OA
ATOM    867  C5'  DA A  41      86.085  82.018 207.371  1.00  0.00     0.216 C 
ATOM    868  C4'  DA A  41      87.221  81.658 206.444  1.00  0.00     0.180 C 
ATOM    869  C3'  DA A  41      88.424  82.588 206.505  1.00  0.00     0.198 C 
ATOM    870  O4'  DA A  41      86.752  81.744 205.072  1.00  0.00    -0.353 OA
ATOM    871  O3'  DA A  41      89.330  82.188 207.529  1.00  0.00    -0.279 OA
ATOM    872  C2'  DA A  41      89.022  82.462 205.108  1.00  0.00     0.199 C 
ATOM    873  P    DA A  42      90.526  83.167 207.968  1.00  0.00     0.408 P 
ATOM    874  O5'  DA A  42      91.584  83.035 206.784  1.00  0.00    -0.287 OA
ATOM    875  OP1  DA A  42      91.138  82.594 209.194  1.00  0.00    -0.624 OA
ATOM    876  OP2  DA A  42      90.010  84.561 207.989  1.00  0.00    -0.624 OA
ATOM    877  C5'  DA A  42      92.184  84.190 206.199  1.00  0.00     0.216 C 
ATOM    878  C4'  DA A  42      92.781  83.842 204.856  1.00  0.00     0.180 C 
ATOM    879  C3'  DA A  42      93.651  84.928 204.236  1.00  0.00     0.198 C 
ATOM    880  O4'  DA A  42      91.698  83.631 203.906  1.00  0.00    -0.353 OA
ATOM    881  O3'  DA A  42      95.013  84.801 204.639  1.00  0.00    -0.279 OA
ATOM    882  C2'  DA A  42      93.456  84.696 202.743  1.00  0.00     0.199 C 
ATOM    883  P    DG A  43      95.875  86.118 204.974  1.00  0.00     0.408 P 
ATOM    884  O5'  DG A  43      96.325  86.655 203.542  1.00  0.00    -0.287 OA
ATOM    885  OP1  DG A  43      97.090  85.674 205.702  1.00  0.00    -0.624 OA
ATOM    886  OP2  DG A  43      94.973  87.123 205.594  1.00  0.00    -0.624 OA
ATOM    887  C5'  DG A  43      97.006  85.802 202.622  1.00  0.00     0.216 C 
ATOM    888  C4'  DG A  43      97.065  86.446 201.257  1.00  0.00     0.180 C 
ATOM    889  C3'  DG A  43      97.613  87.866 201.219  1.00  0.00     0.198 C 
ATOM    890  O4'  DG A  43      95.716  86.569 200.732  1.00  0.00    -0.353 OA
ATOM    891  O3'  DG A  43      99.037  87.878 201.172  1.00  0.00    -0.279 OA
ATOM    892  C2'  DG A  43      96.981  88.424 199.951  1.00  0.00     0.199 C 
ATOM    893  P    DA A  44      99.850  89.101 201.830  1.00  0.00     0.408 P 
ATOM    894  OP1  DA A  44     101.290  88.738 201.793  1.00  0.00    -0.624 OA
ATOM    895  OP2  DA A  44      99.215  89.453 203.125  1.00  0.00    -0.624 OA
ATOM    896  O5'  DA A  44      99.618  90.309 200.816  1.00  0.00    -0.287 OA
ATOM    897  C5'  DA A  44     100.181  90.289 199.505  1.00  0.00     0.216 C 
ATOM    898  C4'  DA A  44      99.669  91.461 198.699  1.00  0.00     0.180 C 
ATOM    899  C3'  DA A  44      99.920  92.833 199.310  1.00  0.00     0.198 C 
ATOM    900  O4'  DA A  44      98.223  91.359 198.592  1.00  0.00    -0.353 OA
ATOM    901  O3'  DA A  44     101.196  93.345 198.936  1.00  0.00    -0.279 OA
ATOM    902  C2'  DA A  44      98.774  93.666 198.746  1.00  0.00     0.199 C 
ATOM    903  P    DG A  45     101.946  94.400 199.892  1.00  0.00     0.408 P 
ATOM    904  OP1  DG A  45     103.017  95.036 199.085  1.00  0.00    -0.624 OA
ATOM    905  OP2  DG A  45     102.294  93.712 201.161  1.00  0.00    -0.624 OA
ATOM    906  O5'  DG A  45     100.833  95.498 200.205  1.00  0.00    -0.287 OA
ATOM    907  C5'  DG A  45     100.691  96.653 199.381  1.00  0.00     0.216 C 
ATOM    908  C4'  DG A  45      99.399  97.365 199.703  1.00  0.00     0.180 C 
ATOM    909  O4'  DG A  45      99.688  98.485 200.584  1.00  0.00    -0.353 OA
ATOM    910  C3'  DG A  45      98.691  97.988 198.507  1.00  0.00     0.198 C 
ATOM    911  C1'  DG A  45      98.895  99.601 200.218  1.00  0.00     0.262 C 
ATOM    912  N9   DG A  45      99.786 100.675 199.788  1.00  0.00    -0.293 N 
ATOM    913  C2'  DG A  45      97.916  99.139 199.137  1.00  0.00     0.199 C 
ATOM    914  C8   DG A  45     100.100 101.816 200.486  1.00  0.00     0.214 A 
ATOM    915  C4   DG A  45     100.475 100.746 198.601  1.00  0.00     0.187 A 
ATOM    916  N7   DG A  45     100.924 102.600 199.848  1.00  0.00    -0.234 NA
ATOM    917  C5   DG A  45     101.171 101.936 198.652  1.00  0.00     0.173 A 
ATOM    918  C6   DG A  45     101.987 102.298 197.549  1.00  0.00     0.292 A 
ATOM    919  O6   DG A  45     102.676 103.312 197.396  1.00  0.00    -0.265 OA
ATOM    920  N1   DG A  45     101.948 101.336 196.547  1.00  0.00    -0.153 N 
ATOM    921  H1   DG A  45     102.501 101.508 195.721  1.00  0.00     0.187 HD
ATOM    922  C2   DG A  45     101.218 100.177 196.597  1.00  0.00     0.703 A 
ATOM    923  N2   DG A  45     101.308  99.376 195.533  1.00  0.00    -0.233 N 
ATOM    924  N3   DG A  45     100.453  99.827 197.614  1.00  0.00    -0.044 NA
ATOM    925  H22  DG A  45     101.886  99.628 194.745  1.00  0.00     0.174 HD
ATOM    926  H21  DG A  45     100.784  98.511 195.529  1.00  0.00     0.174 HD
ATOM    927  O2'  DG A  45      96.732  98.681 199.761  1.00  0.00    -0.388 OA
ATOM    928 2'HO  DG A  45      96.057  98.645 199.081  1.00  0.00     0.210 HD
ATOM    929  O3'  DG A  45      97.838  97.055 197.850  1.00  0.00    -0.279 OA
ATOM    930  P    DG A  46      97.499  97.249 196.291  1.00  0.00     0.408 P 
ATOM    931  OP2  DG A  46      98.721  96.935 195.504  1.00  0.00    -0.624 OA
ATOM    932  O5'  DG A  46      97.214  98.812 196.152  1.00  0.00    -0.287 OA
ATOM    933  OP1  DG A  46      96.238  96.516 196.012  1.00  0.00    -0.624 OA
ATOM    934  C5'  DG A  46      96.317  99.316 195.162  1.00  0.00     0.216 C 
ATOM    935  C4'  DG A  46      95.172 100.052 195.821  1.00  0.00     0.180 C 
ATOM    936  O4'  DG A  46      95.606 100.562 197.103  1.00  0.00    -0.353 OA
ATOM    937  C3'  DG A  46      94.685 101.290 195.083  1.00  0.00     0.198 C 
ATOM    938  C1'  DG A  46      94.850 101.709 197.431  1.00  0.00     0.262 C 
ATOM    939  N9   DG A  46      95.763 102.728 197.940  1.00  0.00    -0.293 N 
ATOM    940  C2'  DG A  46      94.069 102.151 196.188  1.00  0.00     0.199 C 
ATOM    941  C4   DG A  46      97.017 103.024 197.462  1.00  0.00     0.187 A 
ATOM    942  C8   DG A  46      95.540 103.583 198.991  1.00  0.00     0.214 A 
ATOM    943  C5   DG A  46      97.480 104.050 198.258  1.00  0.00     0.173 A 
ATOM    944  N3   DG A  46      97.634 102.419 196.427  1.00  0.00    -0.044 NA
ATOM    945  N7   DG A  46      96.537 104.393 199.219  1.00  0.00    -0.234 NA
ATOM    946  C6   DG A  46      98.771 104.584 198.005  1.00  0.00     0.292 A 
ATOM    947  N1   DG A  46      99.385 103.945 196.935  1.00  0.00    -0.153 N 
ATOM    948  O6   DG A  46      99.361 105.493 198.597  1.00  0.00    -0.265 OA
ATOM    949  H1   DG A  46     100.307 104.262 196.682  1.00  0.00     0.187 HD
ATOM    950  C2   DG A  46      98.833 102.925 196.204  1.00  0.00     0.703 A 
ATOM    951  N2   DG A  46      99.581 102.437 195.213  1.00  0.00    -0.233 N 
ATOM    952  H22  DG A  46     100.492 102.823 195.021  1.00  0.00     0.174 HD
ATOM    953  H21  DG A  46      99.209 101.684 194.651  1.00  0.00     0.174 HD
ATOM    954  O2'  DG A  46      92.704 101.829 196.383  1.00  0.00    -0.388 OA
ATOM    955 2'HO  DG A  46      92.665 100.926 196.706  1.00  0.00     0.210 HD
ATOM    956  O3'  DG A  46      93.725 100.957 194.082  1.00  0.00    -0.279 OA
ATOM    957  P    DT A  47      94.213 100.528 192.610  1.00  0.00     0.408 P 
ATOM    958  OP2  DT A  47      94.511  99.074 192.618  1.00  0.00    -0.624 OA
ATOM    959  O5'  DT A  47      95.586 101.312 192.407  1.00  0.00    -0.287 OA
ATOM    960  OP1  DT A  47      93.226 101.068 191.639  1.00  0.00    -0.624 OA
ATOM    961  C5'  DT A  47      95.603 102.704 192.096  1.00  0.00     0.216 C 
ATOM    962  C4'  DT A  47      97.022 103.173 191.879  1.00  0.00     0.180 C 
ATOM    963  O4'  DT A  47      97.879 102.567 192.888  1.00  0.00    -0.353 OA
ATOM    964  C3'  DT A  47      97.640 102.771 190.545  1.00  0.00     0.198 C 
ATOM    965  C1'  DT A  47      99.083 102.119 192.291  1.00  0.00     0.264 C 
ATOM    966  N1   DT A  47      99.105 100.650 192.339  1.00  0.00    -0.280 N 
ATOM    967  C2'  DT A  47      99.125 102.693 190.876  1.00  0.00     0.199 C 
ATOM    968  C2   DT A  47     100.286 100.031 192.709  1.00  0.00     0.331 A 
ATOM    969  C6   DT A  47      97.987  99.909 192.025  1.00  0.00     0.104 A 
ATOM    970  O2   DT A  47     101.295 100.648 193.005  1.00  0.00    -0.246 OA
ATOM    971  N3   DT A  47     100.243  98.661 192.723  1.00  0.00    -0.275 N 
ATOM    972  H3   DT A  47     101.088  98.179 192.987  1.00  0.00     0.173 HD
ATOM    973  C4   DT A  47      99.166  97.862 192.415  1.00  0.00     0.250 A 
ATOM    974  O4   DT A  47      99.293  96.639 192.444  1.00  0.00    -0.268 OA
ATOM    975  C5   DT A  47      97.982  98.574 192.051  1.00  0.00     0.092 A 
ATOM    976  O2'  DT A  47      99.709 103.980 190.930  1.00  0.00    -0.388 OA
ATOM    977 2'HO  DT A  47      99.130 104.570 190.446  1.00  0.00     0.210 HD
ATOM    978  O3'  DT A  47      97.353 103.731 189.530  1.00  0.00    -0.279 OA
ATOM    979  P    DC A  48      97.493 103.324 187.980  1.00  0.00     0.408 P 
ATOM    980  O5'  DC A  48      99.043 103.522 187.669  1.00  0.00    -0.287 OA
ATOM    981  OP1  DC A  48      96.733 104.325 187.189  1.00  0.00    -0.624 OA
ATOM    982  OP2  DC A  48      97.174 101.881 187.836  1.00  0.00    -0.624 OA
ATOM    983  C5'  DC A  48      99.664 104.797 187.817  1.00  0.00     0.216 C 
ATOM    984  C4'  DC A  48     101.160 104.673 187.651  1.00  0.00     0.180 C 
ATOM    985  O4'  DC A  48     101.688 103.833 188.714  1.00  0.00    -0.353 OA
ATOM    986  C3'  DC A  48     101.622 103.993 186.371  1.00  0.00     0.198 C 
ATOM    987  C1'  DC A  48     102.735 103.022 188.207  1.00  0.00     0.264 C 
ATOM    988  C2'  DC A  48     102.994 103.461 186.765  1.00  0.00     0.199 C 
ATOM    989  N1   DC A  48     102.333 101.611 188.333  1.00  0.00    -0.278 N 
ATOM    990  O2'  DC A  48     103.958 104.496 186.774  1.00  0.00    -0.388 OA
ATOM    991 2'HO  DC A  48     103.566 105.240 186.315  1.00  0.00     0.210 HD
ATOM    992  C2   DC A  48     103.324 100.637 188.484  1.00  0.00     0.352 A 
ATOM    993  C6   DC A  48     101.013 101.254 188.308  1.00  0.00     0.102 A 
ATOM    994  O2   DC A  48     104.512 100.984 188.496  1.00  0.00    -0.244 OA
ATOM    995  N3   DC A  48     102.963  99.340 188.611  1.00  0.00    -0.177 NA
ATOM    996  C4   DC A  48     101.672  99.003 188.590  1.00  0.00     0.128 A 
ATOM    997  C5   DC A  48     100.641  99.974 188.435  1.00  0.00     0.067 A 
ATOM    998  N4   DC A  48     101.364  97.713 188.722  1.00  0.00    -0.384 N 
ATOM    999  H41  DC A  48     100.399  97.417 188.712  1.00  0.00     0.157 HD
ATOM   1000  H42  DC A  48     102.100  97.030 188.832  1.00  0.00     0.157 HD
ATOM   1001  O3'  DC A  48     101.682 104.909 185.282  1.00  0.00    -0.279 OA
ATOM   1002  P    DA A  49     101.609 104.359 183.772  1.00  0.00     0.408 P 
ATOM   1003  O5'  DA A  49     102.918 103.463 183.625  1.00  0.00    -0.287 OA
ATOM   1004  OP1  DA A  49     101.745 105.530 182.869  1.00  0.00    -0.624 OA
ATOM   1005  OP2  DA A  49     100.422 103.475 183.653  1.00  0.00    -0.624 OA
ATOM   1006  C5'  DA A  49     104.216 104.024 183.813  1.00  0.00     0.216 C 
ATOM   1007  C4'  DA A  49     105.277 102.969 183.598  1.00  0.00     0.180 C 
ATOM   1008  O4'  DA A  49     105.358 102.119 184.770  1.00  0.00    -0.353 OA
ATOM   1009  C3'  DA A  49     105.011 101.988 182.467  1.00  0.00     0.198 C 
ATOM   1010  C1'  DA A  49     105.758 100.817 184.381  1.00  0.00     0.262 C 
ATOM   1011  C2'  DA A  49     105.885 100.801 182.855  1.00  0.00     0.199 C 
ATOM   1012  N9   DA A  49     104.778  99.859 184.894  1.00  0.00    -0.294 N 
ATOM   1013  O2'  DA A  49     107.241 101.027 182.515  1.00  0.00    -0.388 OA
ATOM   1014 2'HO  DA A  49     107.344 100.771 181.597  1.00  0.00     0.210 HD
ATOM   1015  C4   DA A  49     105.026  98.552 185.237  1.00  0.00     0.167 A 
ATOM   1016  C8   DA A  49     103.441 100.062 185.131  1.00  0.00     0.214 A 
ATOM   1017  N3   DA A  49     106.199  97.901 185.172  1.00  0.00    -0.222 NA
ATOM   1018  C5   DA A  49     103.815  98.039 185.666  1.00  0.00     0.149 A 
ATOM   1019  C2   DA A  49     106.062  96.643 185.586  1.00  0.00     0.237 A 
ATOM   1020  N1   DA A  49     104.965  96.010 186.024  1.00  0.00    -0.222 NA
ATOM   1021  C6   DA A  49     103.803  96.694 186.077  1.00  0.00     0.155 A 
ATOM   1022  N6   DA A  49     102.712  96.063 186.515  1.00  0.00    -0.382 N 
ATOM   1023  H62  DA A  49     102.765  95.095 186.800  1.00  0.00     0.157 HD
ATOM   1024  H61  DA A  49     101.833  96.556 186.562  1.00  0.00     0.157 HD
ATOM   1025  N7   DA A  49     102.820  99.004 185.595  1.00  0.00    -0.236 NA
ATOM   1026  O3'  DA A  49     105.360 102.540 181.200  1.00  0.00    -0.279 OA
ATOM   1027  P    DG A  50     104.485 102.179 179.898  1.00  0.00     0.408 P 
ATOM   1028  O5'  DG A  50     105.252 100.942 179.250  1.00  0.00    -0.287 OA
ATOM   1029  OP1  DG A  50     104.597 103.327 178.963  1.00  0.00    -0.624 OA
ATOM   1030  OP2  DG A  50     103.142 101.714 180.330  1.00  0.00    -0.624 OA
ATOM   1031  C5'  DG A  50     106.533 101.105 178.645  1.00  0.00     0.216 C 
ATOM   1032  C4'  DG A  50     107.312  99.812 178.714  1.00  0.00     0.180 C 
ATOM   1033  O4'  DG A  50     107.373  99.367 180.099  1.00  0.00    -0.353 OA
ATOM   1034  C3'  DG A  50     106.701  98.634 177.969  1.00  0.00     0.198 C 
ATOM   1035  C1'  DG A  50     107.223  97.958 180.154  1.00  0.00     0.262 C 
ATOM   1036  N9   DG A  50     105.964  97.653 180.825  1.00  0.00    -0.293 N 
ATOM   1037  C2'  DG A  50     107.286  97.445 178.718  1.00  0.00     0.199 C 
ATOM   1038  C4   DG A  50     105.715  96.594 181.664  1.00  0.00     0.187 A 
ATOM   1039  C8   DG A  50     104.791  98.361 180.740  1.00  0.00     0.214 A 
ATOM   1040  N3   DG A  50     106.601  95.640 182.022  1.00  0.00    -0.044 NA
ATOM   1041  C5   DG A  50     104.395  96.726 182.040  1.00  0.00     0.173 A 
ATOM   1042  C2   DG A  50     106.066  94.752 182.840  1.00  0.00     0.703 A 
ATOM   1043  N2   DG A  50     106.806  93.737 183.291  1.00  0.00    -0.233 N 
ATOM   1044  N1   DG A  50     104.765  94.794 183.275  1.00  0.00    -0.153 N 
ATOM   1045  H22  DG A  50     106.414  93.057 183.926  1.00  0.00     0.174 HD
ATOM   1046  H21  DG A  50     107.770  93.662 182.998  1.00  0.00     0.174 HD
ATOM   1047  H1   DG A  50     104.450  94.072 183.903  1.00  0.00     0.187 HD
ATOM   1048  C6   DG A  50     103.835  95.764 182.918  1.00  0.00     0.292 A 
ATOM   1049  O6   DG A  50     102.685  95.705 183.366  1.00  0.00    -0.265 OA
ATOM   1050  N7   DG A  50     103.825  97.845 181.449  1.00  0.00    -0.234 NA
ATOM   1051  O2'  DG A  50     108.642  97.234 178.366  1.00  0.00    -0.388 OA
ATOM   1052 2'HO  DG A  50     108.766  97.619 177.499  1.00  0.00     0.210 HD
ATOM   1053  O3'  DG A  50     107.050  98.639 176.587  1.00  0.00    -0.279 OA
ATOM   1054  P    DC A  51     106.060  97.964 175.512  1.00  0.00     0.408 P 
ATOM   1055  OP1  DC A  51     106.724  98.044 174.186  1.00  0.00    -0.624 OA
ATOM   1056  OP2  DC A  51     104.706  98.548 175.691  1.00  0.00    -0.624 OA
ATOM   1057  O5'  DC A  51     106.003  96.433 175.950  1.00  0.00    -0.287 OA
ATOM   1058  C5'  DC A  51     107.169  95.614 175.896  1.00  0.00     0.216 C 
ATOM   1059  C4'  DC A  51     106.959  94.346 176.692  1.00  0.00     0.180 C 
ATOM   1060  C3'  DC A  51     105.863  93.421 176.192  1.00  0.00     0.198 C 
ATOM   1061  O4'  DC A  51     106.517  94.673 178.033  1.00  0.00    -0.353 OA
ATOM   1062  C2'  DC A  51     105.574  92.571 177.425  1.00  0.00     0.199 C 
ATOM   1063  O3'  DC A  51     106.291  92.642 175.078  1.00  0.00    -0.279 OA
ATOM   1064  O2'  DC A  51     106.538  91.547 177.577  1.00  0.00    -0.388 OA
ATOM   1065  C1'  DC A  51     105.764  93.590 178.552  1.00  0.00     0.264 C 
ATOM   1066 2'HO  DC A  51     106.970  91.447 176.727  1.00  0.00     0.210 HD
ATOM   1067  N1   DC A  51     104.494  94.109 179.086  1.00  0.00    -0.278 N 
ATOM   1068  C6   DC A  51     104.103  95.399 178.854  1.00  0.00     0.102 A 
ATOM   1069  C2   DC A  51     103.685  93.254 179.838  1.00  0.00     0.352 A 
ATOM   1070  C5   DC A  51     102.945  95.868 179.338  1.00  0.00     0.067 A 
ATOM   1071  C4   DC A  51     102.140  94.970 180.097  1.00  0.00     0.128 A 
ATOM   1072  N4   DC A  51     100.978  95.375 180.604  1.00  0.00    -0.384 N 
ATOM   1073  N3   DC A  51     102.513  93.710 180.327  1.00  0.00    -0.177 NA
ATOM   1074  H42  DC A  51     100.418  94.735 181.150  1.00  0.00     0.157 HD
ATOM   1075  H41  DC A  51     100.663  96.322 180.454  1.00  0.00     0.157 HD
ATOM   1076  O2   DC A  51     104.065  92.092 180.041  1.00  0.00    -0.244 OA
ATOM   1077  P    DC A  52     105.200  92.024 174.069  1.00  0.00     0.408 P 
ATOM   1078  OP1  DC A  52     105.939  91.444 172.919  1.00  0.00    -0.624 OA
ATOM   1079  O5'  DC A  52     104.545  90.828 174.896  1.00  0.00    -0.287 OA
ATOM   1080  OP2  DC A  52     104.149  93.045 173.826  1.00  0.00    -0.624 OA
ATOM   1081  C5'  DC A  52     105.300  89.664 175.225  1.00  0.00     0.216 C 
ATOM   1082  C4'  DC A  52     104.377  88.544 175.644  1.00  0.00     0.180 C 
ATOM   1083  O4'  DC A  52     103.989  88.743 177.034  1.00  0.00    -0.353 OA
ATOM   1084  C3'  DC A  52     103.054  88.464 174.892  1.00  0.00     0.198 C 
ATOM   1085  C1'  DC A  52     102.612  88.440 177.195  1.00  0.00     0.264 C 
ATOM   1086  N1   DC A  52     101.893  89.690 177.494  1.00  0.00    -0.278 N 
ATOM   1087  C2'  DC A  52     102.156  87.766 175.903  1.00  0.00     0.199 C 
ATOM   1088  C2   DC A  52     100.688  89.626 178.198  1.00  0.00     0.352 A 
ATOM   1089  C6   DC A  52     102.394  90.897 177.093  1.00  0.00     0.102 A 
ATOM   1090  N3   DC A  52     100.027  90.771 178.482  1.00  0.00    -0.177 NA
ATOM   1091  O2   DC A  52     100.251  88.520 178.545  1.00  0.00    -0.244 OA
ATOM   1092  C4   DC A  52     100.528  91.944 178.093  1.00  0.00     0.128 A 
ATOM   1093  N4   DC A  52      99.847  93.046 178.405  1.00  0.00    -0.384 N 
ATOM   1094  C5   DC A  52     101.752  92.039 177.369  1.00  0.00     0.067 A 
ATOM   1095  H42  DC A  52      98.985  92.969 178.926  1.00  0.00     0.157 HD
ATOM   1096  H41  DC A  52     100.191  93.954 178.132  1.00  0.00     0.157 HD
ATOM   1097  O2'  DC A  52     102.450  86.383 175.982  1.00  0.00    -0.388 OA
ATOM   1098 2'HO  DC A  52     102.891  86.148 175.164  1.00  0.00     0.210 HD
ATOM   1099  O3'  DC A  52     103.174  87.736 173.673  1.00  0.00    -0.279 OA
ATOM   1100  P    DC A  53     102.118  87.988 172.487  1.00  0.00     0.408 P 
ATOM   1101  OP2  DC A  53     101.966  89.454 172.296  1.00  0.00    -0.624 OA
ATOM   1102  OP1  DC A  53     102.525  87.137 171.341  1.00  0.00    -0.624 OA
ATOM   1103  O5'  DC A  53     100.745  87.421 173.066  1.00  0.00    -0.287 OA
ATOM   1104  C5'  DC A  53     100.595  86.033 173.364  1.00  0.00     0.216 C 
ATOM   1105  C4'  DC A  53      99.273  85.783 174.052  1.00  0.00     0.180 C 
ATOM   1106  O4'  DC A  53      99.244  86.489 175.323  1.00  0.00    -0.353 OA
ATOM   1107  C3'  DC A  53      98.038  86.304 173.335  1.00  0.00     0.198 C 
ATOM   1108  C1'  DC A  53      97.912  86.883 175.613  1.00  0.00     0.264 C 
ATOM   1109  N1   DC A  53      97.879  88.346 175.776  1.00  0.00    -0.278 N 
ATOM   1110  C2'  DC A  53      97.027  86.383 174.471  1.00  0.00     0.199 C 
ATOM   1111  C6   DC A  53      98.866  89.134 175.253  1.00  0.00     0.102 A 
ATOM   1112  C2   DC A  53      96.816  88.921 176.475  1.00  0.00     0.352 A 
ATOM   1113  C5   DC A  53      98.840  90.465 175.401  1.00  0.00     0.067 A 
ATOM   1114  C4   DC A  53      97.741  91.022 176.117  1.00  0.00     0.128 A 
ATOM   1115  N3   DC A  53      96.773  90.263 176.628  1.00  0.00    -0.177 NA
ATOM   1116  N4   DC A  53      97.657  92.340 176.296  1.00  0.00    -0.384 N 
ATOM   1117  H41  DC A  53      98.369  92.953 175.926  1.00  0.00     0.157 HD
ATOM   1118  H42  DC A  53      96.874  92.724 176.807  1.00  0.00     0.157 HD
ATOM   1119  O2   DC A  53      95.933  88.186 176.940  1.00  0.00    -0.244 OA
ATOM   1120  O2'  DC A  53      96.534  85.099 174.808  1.00  0.00    -0.388 OA
ATOM   1121 2'HO  DC A  53      96.678  84.538 174.045  1.00  0.00     0.210 HD
ATOM   1122  O3'  DC A  53      97.618  85.435 172.288  1.00  0.00    -0.279 OA
ATOM   1123  P    DC A  54      96.725  86.014 171.081  1.00  0.00     0.408 P 
ATOM   1124  OP2  DC A  54      97.338  87.281 170.609  1.00  0.00    -0.624 OA
ATOM   1125  O5'  DC A  54      95.330  86.365 171.767  1.00  0.00    -0.287 OA
ATOM   1126  OP1  DC A  54      96.504  84.903 170.120  1.00  0.00    -0.624 OA
ATOM   1127  C5'  DC A  54      94.498  85.339 172.303  1.00  0.00     0.216 C 
ATOM   1128  C4'  DC A  54      93.266  85.942 172.941  1.00  0.00     0.180 C 
ATOM   1129  O4'  DC A  54      93.662  86.751 174.079  1.00  0.00    -0.353 OA
ATOM   1130  C3'  DC A  54      92.474  86.904 172.068  1.00  0.00     0.198 C 
ATOM   1131  C1'  DC A  54      92.780  87.852 174.210  1.00  0.00     0.264 C 
ATOM   1132  N1   DC A  54      93.569  89.093 174.150  1.00  0.00    -0.278 N 
ATOM   1133  C2'  DC A  54      91.731  87.742 173.102  1.00  0.00     0.199 C 
ATOM   1134  C6   DC A  54      94.785  89.123 173.525  1.00  0.00     0.102 A 
ATOM   1135  C2   DC A  54      93.054  90.248 174.743  1.00  0.00     0.352 A 
ATOM   1136  C5   DC A  54      95.507  90.249 173.472  1.00  0.00     0.067 A 
ATOM   1137  C4   DC A  54      94.955  91.411 174.087  1.00  0.00     0.128 A 
ATOM   1138  N4   DC A  54      95.625  92.562 174.068  1.00  0.00    -0.384 N 
ATOM   1139  N3   DC A  54      93.769  91.393 174.693  1.00  0.00    -0.177 NA
ATOM   1140  H41  DC A  54      96.528  92.623 173.620  1.00  0.00     0.157 HD
ATOM   1141  H42  DC A  54      95.222  93.377 174.512  1.00  0.00     0.157 HD
ATOM   1142  O2   DC A  54      91.950  90.195 175.305  1.00  0.00    -0.244 OA
ATOM   1143  O2'  DC A  54      90.608  87.048 173.612  1.00  0.00    -0.388 OA
ATOM   1144 2'HO  DC A  54      90.615  86.176 173.214  1.00  0.00     0.210 HD
ATOM   1145  O3'  DC A  54      91.589  86.214 171.190  1.00  0.00    -0.279 OA
ATOM   1146  P    DC A  55      91.045  86.946 169.865  1.00  0.00     0.408 P 
ATOM   1147  OP2  DC A  55      92.184  87.627 169.199  1.00  0.00    -0.624 OA
ATOM   1148  OP1  DC A  55      90.236  85.956 169.109  1.00  0.00    -0.624 OA
ATOM   1149  O5'  DC A  55      90.057  88.068 170.421  1.00  0.00    -0.287 OA
ATOM   1150  C5'  DC A  55      88.906  87.720 171.189  1.00  0.00     0.216 C 
ATOM   1151  C4'  DC A  55      88.131  88.962 171.562  1.00  0.00     0.180 C 
ATOM   1152  C3'  DC A  55      87.985  90.001 170.460  1.00  0.00     0.182 C 
ATOM   1153  O4'  DC A  55      88.841  89.661 172.618  1.00  0.00    -0.353 OA
ATOM   1154  C2'  DC A  55      87.766  91.288 171.247  1.00  0.00     0.198 C 
ATOM   1155  O3'  DC A  55      86.896  89.706 169.579  1.00  0.00    -0.390 OA
ATOM   1156  C1'  DC A  55      88.663  91.058 172.465  1.00  0.00     0.264 C 
ATOM   1157  O2'  DC A  55      86.424  91.398 171.686  1.00  0.00    -0.388 OA
ATOM   1158  N1   DC A  55      89.990  91.683 172.350  1.00  0.00    -0.278 N 
ATOM   1159  C2   DC A  55      90.196  92.940 172.928  1.00  0.00     0.352 A 
ATOM   1160  C6   DC A  55      91.008  91.053 171.690  1.00  0.00     0.102 A 
ATOM   1161  N3   DC A  55      91.411  93.521 172.830  1.00  0.00    -0.177 NA
ATOM   1162  O2   DC A  55      89.255  93.491 173.517  1.00  0.00    -0.244 OA
ATOM   1163  C4   DC A  55      92.399  92.898 172.186  1.00  0.00     0.128 A 
ATOM   1164  N4   DC A  55      93.579  93.511 172.118  1.00  0.00    -0.384 N 
ATOM   1165  C5   DC A  55      92.218  91.618 171.586  1.00  0.00     0.067 A 
ATOM   1166  H41  DC A  55      94.354  93.076 171.640  1.00  0.00     0.157 HD
ATOM   1167  H42  DC A  55      93.692  94.416 172.554  1.00  0.00     0.157 HD
ATOM   1168 2'HO  DC A  55      85.881  90.947 171.039  1.00  0.00     0.210 HD
ATOM   1169 3'HO  DC A  55      87.002  88.795 169.294  1.00  0.00     0.210 HD
ATOM   1170  O2'  DA A  44      99.040  94.066 197.415  1.00  0.00    -0.388 OA
ATOM   1171  C1'  DA A  44      97.640  92.642 198.733  1.00  0.00     0.262 C 
ATOM   1172 2'HO  DA A  44      99.981  93.958 197.275  1.00  0.00     0.210 HD
ATOM   1173  N9   DA A  44      96.827  92.646 199.948  1.00  0.00    -0.294 N 
ATOM   1174  C4   DA A  44      95.774  93.485 200.219  1.00  0.00     0.167 A 
ATOM   1175  C8   DA A  44      96.945  91.826 201.044  1.00  0.00     0.214 A 
ATOM   1176  N3   DA A  44      95.288  94.463 199.435  1.00  0.00    -0.222 NA
ATOM   1177  C5   DA A  44      95.312  93.117 201.470  1.00  0.00     0.149 A 
ATOM   1178  C2   DA A  44      94.260  95.069 200.025  1.00  0.00     0.237 A 
ATOM   1179  N1   DA A  44      93.704  94.825 201.219  1.00  0.00    -0.222 NA
ATOM   1180  C6   DA A  44      94.217  93.834 201.980  1.00  0.00     0.155 A 
ATOM   1181  N6   DA A  44      93.660  93.589 203.166  1.00  0.00    -0.382 N 
ATOM   1182  H61  DA A  44      94.025  92.851 203.752  1.00  0.00     0.157 HD
ATOM   1183  H62  DA A  44      92.868  94.134 203.477  1.00  0.00     0.157 HD
ATOM   1184  N7   DA A  44      96.061  92.066 201.981  1.00  0.00    -0.236 NA
ATOM   1185  O2'  DG A  43      97.660  87.963 198.796  1.00  0.00    -0.388 OA
ATOM   1186  C1'  DG A  43      95.598  87.776 199.997  1.00  0.00     0.262 C 
ATOM   1187 2'HO  DG A  43      98.591  87.933 199.020  1.00  0.00     0.210 HD
ATOM   1188  N9   DG A  43      94.582  88.608 200.637  1.00  0.00    -0.293 N 
ATOM   1189  C4   DG A  43      94.048  89.774 200.141  1.00  0.00     0.187 A 
ATOM   1190  C8   DG A  43      93.970  88.387 201.846  1.00  0.00     0.214 A 
ATOM   1191  N3   DG A  43      94.374  90.361 198.969  1.00  0.00    -0.044 NA
ATOM   1192  C5   DG A  43      93.135  90.188 201.086  1.00  0.00     0.173 A 
ATOM   1193  C2   DG A  43      93.689  91.472 198.769  1.00  0.00     0.703 A 
ATOM   1194  N1   DG A  43      92.759  91.971 199.644  1.00  0.00    -0.153 N 
ATOM   1195  N2   DG A  43      93.889  92.184 197.656  1.00  0.00    -0.233 N 
ATOM   1196  H1   DG A  43      92.294  92.829 199.391  1.00  0.00     0.187 HD
ATOM   1197  C6   DG A  43      92.406  91.385 200.854  1.00  0.00     0.292 A 
ATOM   1198  O6   DG A  43      91.551  91.918 201.568  1.00  0.00    -0.265 OA
ATOM   1199  H21  DG A  43      94.564  91.862 196.978  1.00  0.00     0.174 HD
ATOM   1200  H22  DG A  43      93.371  93.036 197.494  1.00  0.00     0.174 HD
ATOM   1201  N7   DG A  43      93.095  89.303 202.156  1.00  0.00    -0.234 NA
ATOM   1202  O2'  DA A  42      94.216  83.590 202.293  1.00  0.00    -0.388 OA
ATOM   1203  C1'  DA A  42      91.976  84.327 202.705  1.00  0.00     0.262 C 
ATOM   1204 2'HO  DA A  42      95.025  83.588 202.804  1.00  0.00     0.210 HD
ATOM   1205  N9   DA A  42      91.079  85.481 202.625  1.00  0.00    -0.294 N 
ATOM   1206  C4   DA A  42      91.025  86.409 201.612  1.00  0.00     0.167 A 
ATOM   1207  C8   DA A  42      90.128  85.867 203.538  1.00  0.00     0.214 A 
ATOM   1208  N3   DA A  42      91.772  86.444 200.496  1.00  0.00    -0.222 NA
ATOM   1209  C5   DA A  42      90.039  87.308 201.979  1.00  0.00     0.149 A 
ATOM   1210  C2   DA A  42      91.443  87.493 199.745  1.00  0.00     0.237 A 
ATOM   1211  N1   DA A  42      90.520  88.439 199.965  1.00  0.00    -0.222 NA
ATOM   1212  C6   DA A  42      89.787  88.373 201.098  1.00  0.00     0.155 A 
ATOM   1213  N6   DA A  42      88.868  89.313 201.319  1.00  0.00    -0.382 N 
ATOM   1214  H61  DA A  42      88.311  89.278 202.161  1.00  0.00     0.157 HD
ATOM   1215  H62  DA A  42      88.729  90.060 200.652  1.00  0.00     0.157 HD
ATOM   1216  N7   DA A  42      89.479  86.953 203.198  1.00  0.00    -0.236 NA
ATOM   1217  O2'  DA A  41      89.807  81.290 204.988  1.00  0.00    -0.388 OA
ATOM   1218  C1'  DA A  41      87.764  82.297 204.252  1.00  0.00     0.262 C 
ATOM   1219 2'HO  DA A  41      90.720  81.555 205.102  1.00  0.00     0.210 HD
ATOM   1220  N9   DA A  41      87.264  83.552 203.690  1.00  0.00    -0.294 N 
ATOM   1221  C8   DA A  41      86.393  84.443 204.267  1.00  0.00     0.214 A 
ATOM   1222  C4   DA A  41      87.576  84.075 202.459  1.00  0.00     0.167 A 
ATOM   1223  N7   DA A  41      86.123  85.481 203.513  1.00  0.00    -0.236 NA
ATOM   1224  C5   DA A  41      86.868  85.259 202.362  1.00  0.00     0.149 A 
ATOM   1225  C6   DA A  41      87.017  85.997 201.174  1.00  0.00     0.155 A 
ATOM   1226  N6   DA A  41      86.396  87.152 200.937  1.00  0.00    -0.382 N 
ATOM   1227  N1   DA A  41      87.837  85.498 200.224  1.00  0.00    -0.222 NA
ATOM   1228  H61  DA A  41      85.778  87.541 201.634  1.00  0.00     0.157 HD
ATOM   1229  H62  DA A  41      86.544  87.638 200.063  1.00  0.00     0.157 HD
ATOM   1230  C2   DA A  41      88.459  84.335 200.461  1.00  0.00     0.237 A 
ATOM   1231  N3   DA A  41      88.397  83.550 201.534  1.00  0.00    -0.222 NA
ATOM   1232  C1'  DT A  39      77.110  86.128 203.936  1.00  0.00     0.264 C 
ATOM   1233  O2'  DT A  39      77.417  84.971 206.010  1.00  0.00    -0.388 OA
ATOM   1234  N1   DT A  39      77.781  86.439 202.666  1.00  0.00    -0.280 N 
ATOM   1235  C2   DT A  39      78.454  85.414 202.024  1.00  0.00     0.331 A 
ATOM   1236  C6   DT A  39      77.749  87.707 202.132  1.00  0.00     0.104 A 
ATOM   1237  O2   DT A  39      78.501  84.278 202.458  1.00  0.00    -0.246 OA
ATOM   1238  N3   DT A  39      79.068  85.770 200.850  1.00  0.00    -0.275 N 
ATOM   1239  C4   DT A  39      79.078  87.013 200.264  1.00  0.00     0.250 A 
ATOM   1240  H3   DT A  39      79.575  85.040 200.371  1.00  0.00     0.173 HD
ATOM   1241  O4   DT A  39      79.678  87.177 199.202  1.00  0.00    -0.268 OA
ATOM   1242  C5   DT A  39      78.360  88.017 200.985  1.00  0.00     0.092 A 
ATOM   1243 2'HO  DT A  39      77.684  85.267 206.881  1.00  0.00     0.210 HD
ATOM   1244  O2'  DA A  37      69.683  92.579 199.641  1.00  0.00    -0.388 OA
ATOM   1245  C1'  DA A  37      70.452  91.038 197.980  1.00  0.00     0.262 C 
ATOM   1246 2'HO  DA A  37      69.958  93.491 199.736  1.00  0.00     0.210 HD
ATOM   1247  N9   DA A  37      71.275  89.844 197.796  1.00  0.00    -0.294 N 
ATOM   1248  C8   DA A  37      72.211  89.600 196.821  1.00  0.00     0.214 A 
ATOM   1249  C4   DA A  37      71.260  88.722 198.590  1.00  0.00     0.167 A 
ATOM   1250  N7   DA A  37      72.791  88.430 196.927  1.00  0.00    -0.236 NA
ATOM   1251  C5   DA A  37      72.196  87.863 198.046  1.00  0.00     0.149 A 
ATOM   1252  C6   DA A  37      72.373  86.626 198.688  1.00  0.00     0.155 A 
ATOM   1253  N1   DA A  37      71.623  86.373 199.782  1.00  0.00    -0.222 NA
ATOM   1254  N6   DA A  37      73.232  85.695 198.280  1.00  0.00    -0.382 N 
ATOM   1255  C2   DA A  37      70.754  87.305 200.193  1.00  0.00     0.237 A 
ATOM   1256  N3   DA A  37      70.495  88.503 199.673  1.00  0.00    -0.222 NA
ATOM   1257  H62  DA A  37      73.298  84.821 198.780  1.00  0.00     0.157 HD
ATOM   1258  H61  DA A  37      73.806  85.858 197.463  1.00  0.00     0.157 HD
ATOM   1259  O2'  DC A  36      73.057  94.207 192.975  1.00  0.00    -0.388 OA
ATOM   1260  C1'  DC A  36      75.113  94.205 191.752  1.00  0.00     0.264 C 
ATOM   1261 2'HO  DC A  36      73.319  94.500 193.848  1.00  0.00     0.210 HD
ATOM   1262  N1   DC A  36      74.813  94.403 190.326  1.00  0.00    -0.278 N 
ATOM   1263  C2   DC A  36      74.547  95.695 189.862  1.00  0.00     0.352 A 
ATOM   1264  C6   DC A  36      74.793  93.343 189.462  1.00  0.00     0.102 A 
ATOM   1265  O2   DC A  36      74.573  96.640 190.666  1.00  0.00    -0.244 OA
ATOM   1266  N3   DC A  36      74.268  95.883 188.554  1.00  0.00    -0.177 NA
ATOM   1267  C4   DC A  36      74.247  94.842 187.721  1.00  0.00     0.128 A 
ATOM   1268  C5   DC A  36      74.517  93.515 188.164  1.00  0.00     0.067 A 
ATOM   1269  N4   DC A  36      73.961  95.077 186.441  1.00  0.00    -0.384 N 
ATOM   1270  H42  DC A  36      73.776  96.024 186.143  1.00  0.00     0.157 HD
ATOM   1271  H41  DC A  36      73.931  94.318 185.776  1.00  0.00     0.157 HD
ATOM   1272  C1'  DA A  32      77.459  80.143 198.412  1.00  0.00     0.262 C 
ATOM   1273  O2'  DA A  32      75.523  79.151 199.409  1.00  0.00    -0.388 OA
ATOM   1274  N9   DA A  32      77.723  81.440 197.787  1.00  0.00    -0.294 N 
ATOM   1275  C4   DA A  32      77.226  82.650 198.209  1.00  0.00     0.167 A 
ATOM   1276  C8   DA A  32      78.494  81.714 196.685  1.00  0.00     0.214 A 
ATOM   1277  N3   DA A  32      76.418  82.878 199.258  1.00  0.00    -0.222 NA
ATOM   1278  C5   DA A  32      77.730  83.590 197.330  1.00  0.00     0.149 A 
ATOM   1279  C2   DA A  32      76.138  84.174 199.362  1.00  0.00     0.237 A 
ATOM   1280  N1   DA A  32      76.546  85.193 198.596  1.00  0.00    -0.222 NA
ATOM   1281  C6   DA A  32      77.359  84.930 197.550  1.00  0.00     0.155 A 
ATOM   1282  N6   DA A  32      77.765  85.947 196.790  1.00  0.00    -0.382 N 
ATOM   1283  H61  DA A  32      78.374  85.775 196.003  1.00  0.00     0.157 HD
ATOM   1284  H62  DA A  32      77.463  86.887 197.003  1.00  0.00     0.157 HD
ATOM   1285  N7   DA A  32      78.531  82.986 196.370  1.00  0.00    -0.236 NA
ATOM   1286 2'HO  DA A  32      75.234  78.252 199.250  1.00  0.00     0.210 HD
ENDBRANCH 698 701
ENDBRANCH 697 698
ENDBRANCH 657 697
ENDBRANCH 537 538
ENDBRANCH 536 537
ENDBRANCH 533 536
ENDBRANCH 532 533
ENDBRANCH 515 532
ENDBRANCH 510 511
ENDBRANCH 509 510
ENDBRANCH 506 509
ENDBRANCH 505 506
ENDBRANCH 490 505
ENDBRANCH 485 486
ENDBRANCH 484 485
ENDBRANCH 481 484
ENDBRANCH 480 481
ENDBRANCH 463 480
ENDBRANCH 458 459
ENDBRANCH 457 458
ENDBRANCH 454 457
ENDBRANCH 453 454
ENDBRANCH 438 453
ENDBRANCH 433 434
ENDBRANCH 432 433
ENDBRANCH 429 432
ENDBRANCH 428 429
ENDBRANCH 424 428
BRANCH 425 1287
ATOM   1287  O2'  DG A  20      79.578 105.044 201.481  1.00  0.00    -0.388 OA
ATOM   1288 2'HO  DG A  20      78.945 105.719 201.231  1.00  0.00     0.210 HD
ENDBRANCH 425 1287
BRANCH 426 1289
ATOM   1289  N9   DG A  20      79.944 101.644 200.185  1.00  0.00    -0.293 N 
ATOM   1290  C8   DG A  20      79.280 100.678 199.470  1.00  0.00     0.214 A 
ATOM   1291  N7   DG A  20      80.079  99.863 198.839  1.00  0.00    -0.234 NA
ATOM   1292  C5   DG A  20      81.353 100.316 199.160  1.00  0.00     0.173 A 
ATOM   1293  C6   DG A  20      82.629  99.832 198.769  1.00  0.00     0.292 A 
ATOM   1294  C4   DG A  20      81.285 101.413 199.993  1.00  0.00     0.187 A 
ATOM   1295  O6   DG A  20      82.901  98.875 198.035  1.00  0.00    -0.265 OA
ATOM   1296  N1   DG A  20      83.655 100.590 199.325  1.00  0.00    -0.153 N 
ATOM   1297  H1   DG A  20      84.600 100.323 199.100  1.00  0.00     0.187 HD
ATOM   1298  C2   DG A  20      83.478 101.670 200.150  1.00  0.00     0.703 A 
ATOM   1299  N3   DG A  20      82.297 102.133 200.521  1.00  0.00    -0.044 NA
BRANCH 1298 1300
ATOM   1300  N2   DG A  20      84.589 102.267 200.586  1.00  0.00    -0.233 N 
ATOM   1301  H22  DG A  20      85.262 101.751 201.135  1.00  0.00     0.174 HD
ATOM   1302  H21  DG A  20      84.756 103.234 200.348  1.00  0.00     0.174 HD
ENDBRANCH 1298 1300
ENDBRANCH 426 1289
ENDBRANCH 422 423
ENDBRANCH 421 422
ENDBRANCH 418 421
ENDBRANCH 417 418
ENDBRANCH 400 417
ENDBRANCH 395 396
ENDBRANCH 394 395
ENDBRANCH 391 394
ENDBRANCH 390 391
ENDBRANCH 373 390
ENDBRANCH 368 369
ENDBRANCH 367 368
ENDBRANCH 364 367
ENDBRANCH 363 364
ENDBRANCH 359 363
BRANCH 360 1303
ATOM   1303  O2'  DT A  17      72.384 101.514 191.712  1.00  0.00    -0.388 OA
ATOM   1304 2'HO  DT A  17      72.057 101.309 190.836  1.00  0.00     0.210 HD
ENDBRANCH 360 1303
BRANCH 361 1305
ATOM   1305  N1   DT A  17      72.687 104.610 192.477  1.00  0.00    -0.280 N 
ATOM   1306  C2   DT A  17      73.926 104.820 191.902  1.00  0.00     0.331 A 
ATOM   1307  N3   DT A  17      74.791 105.577 192.650  1.00  0.00    -0.275 N 
ATOM   1308  O2   DT A  17      74.237 104.371 190.813  1.00  0.00    -0.246 OA
ATOM   1309  H3   DT A  17      75.700 105.745 192.248  1.00  0.00     0.173 HD
ATOM   1310  C4   DT A  17      74.551 106.131 193.886  1.00  0.00     0.250 A 
ATOM   1311  O4   DT A  17      75.434 106.791 194.433  1.00  0.00    -0.268 OA
ATOM   1312  C5   DT A  17      73.249 105.868 194.413  1.00  0.00     0.092 A 
ATOM   1313  C6   DT A  17      72.379 105.135 193.712  1.00  0.00     0.104 A 
ENDBRANCH 361 1305
ENDBRANCH 357 358
ENDBRANCH 356 357
ENDBRANCH 353 356
ENDBRANCH 352 353
ENDBRANCH 348 352
BRANCH 349 1314
ATOM   1314  O2'  DT A  16      69.180 107.257 194.323  1.00  0.00    -0.388 OA
ATOM   1315 2'HO  DT A  16      68.543 107.973 194.315  1.00  0.00     0.210 HD
ENDBRANCH 349 1314
BRANCH 350 1316
ATOM   1316  N1   DT A  16      70.484 108.787 197.363  1.00  0.00    -0.280 N 
ATOM   1317  C6   DT A  16      71.408 107.837 197.738  1.00  0.00     0.104 A 
ATOM   1318  C5   DT A  16      72.358 108.085 198.643  1.00  0.00     0.092 A 
ATOM   1319  C4   DT A  16      72.440 109.369 199.262  1.00  0.00     0.250 A 
ATOM   1320  O4   DT A  16      73.275 109.720 200.094  1.00  0.00    -0.268 OA
ATOM   1321  N3   DT A  16      71.484 110.267 198.846  1.00  0.00    -0.275 N 
ATOM   1322  H3   DT A  16      71.511 111.180 199.274  1.00  0.00     0.173 HD
ATOM   1323  C2   DT A  16      70.496 110.052 197.921  1.00  0.00     0.331 A 
ATOM   1324  O2   DT A  16      69.694 110.917 197.620  1.00  0.00    -0.246 OA
ENDBRANCH 350 1316
ENDBRANCH 346 347
ENDBRANCH 345 346
ENDBRANCH 342 345
ENDBRANCH 341 342
ENDBRANCH 337 341
BRANCH 338 1325
ATOM   1325  O2'  DG A  15      62.462 109.444 196.015  1.00  0.00    -0.388 OA
ATOM   1326 2'HO  DG A  15      62.597 110.303 196.415  1.00  0.00     0.210 HD
ENDBRANCH 338 1325
BRANCH 339 1327
ATOM   1327  N9   DG A  15      65.016 108.437 193.647  1.00  0.00    -0.293 N 
ATOM   1328  C4   DG A  15      65.555 108.614 192.396  1.00  0.00     0.187 A 
ATOM   1329  C5   DG A  15      66.330 107.497 192.170  1.00  0.00     0.173 A 
ATOM   1330  N3   DG A  15      65.347 109.673 191.587  1.00  0.00    -0.044 NA
ATOM   1331  N7   DG A  15      66.281 106.634 193.257  1.00  0.00    -0.234 NA
ATOM   1332  C6   DG A  15      67.027 107.389 190.939  1.00  0.00     0.292 A 
ATOM   1333  C8   DG A  15      65.490 107.234 194.106  1.00  0.00     0.214 A 
ATOM   1334  O6   DG A  15      67.767 106.479 190.547  1.00  0.00    -0.265 OA
ATOM   1335  N1   DG A  15      66.798 108.490 190.122  1.00  0.00    -0.153 N 
ATOM   1336  H1   DG A  15      67.253 108.498 189.223  1.00  0.00     0.187 HD
ATOM   1337  C2   DG A  15      66.001 109.558 190.446  1.00  0.00     0.703 A 
BRANCH 1337 1338
ATOM   1338  N2   DG A  15      65.902 110.522 189.527  1.00  0.00    -0.233 N 
ATOM   1339  H22  DG A  15      66.693 110.771 188.953  1.00  0.00     0.174 HD
ATOM   1340  H21  DG A  15      65.020 111.002 189.412  1.00  0.00     0.174 HD
ENDBRANCH 1337 1338
ENDBRANCH 339 1327
ENDBRANCH 335 336
ENDBRANCH 334 335
ENDBRANCH 331 334
ENDBRANCH 330 331
ENDBRANCH 326 330
BRANCH 327 1341
ATOM   1341  O2'  DA A  14      66.201 116.988 196.561  1.00  0.00    -0.388 OA
ATOM   1342 2'HO  DA A  14      65.971 117.805 196.118  1.00  0.00     0.210 HD
ENDBRANCH 327 1341
BRANCH 328 1343
ATOM   1343  N9   DA A  14      69.141 118.507 198.128  1.00  0.00    -0.294 N 
ATOM   1344  C8   DA A  14      70.239 118.254 197.344  1.00  0.00     0.214 A 
ATOM   1345  N7   DA A  14      71.272 119.013 197.620  1.00  0.00    -0.236 NA
ATOM   1346  C5   DA A  14      70.823 119.821 198.655  1.00  0.00     0.149 A 
ATOM   1347  C4   DA A  14      69.513 119.520 198.979  1.00  0.00     0.167 A 
ATOM   1348  C6   DA A  14      71.443 120.844 199.397  1.00  0.00     0.155 A 
ATOM   1349  N3   DA A  14      68.763 120.103 199.929  1.00  0.00    -0.222 NA
ATOM   1350  C2   DA A  14      69.454 121.050 200.558  1.00  0.00     0.237 A 
ATOM   1351  N1   DA A  14      70.717 121.451 200.359  1.00  0.00    -0.222 NA
BRANCH 1348 1352
ATOM   1352  N6   DA A  14      72.700 121.243 199.201  1.00  0.00    -0.382 N 
ATOM   1353  H61  DA A  14      73.149 121.081 198.311  1.00  0.00     0.157 HD
ATOM   1354  H62  DA A  14      73.199 121.703 199.948  1.00  0.00     0.157 HD
ENDBRANCH 1348 1352
ENDBRANCH 328 1343
ENDBRANCH 324 325
ENDBRANCH 323 324
ENDBRANCH 320 323
ENDBRANCH 319 320
ENDBRANCH 318 319
BRANCH 317 1355
ATOM   1355  O2'  DC A  13      72.518 112.520 200.930  1.00  0.00    -0.388 OA
ATOM   1356 2'HO  DC A  13      73.434 112.241 200.896  1.00  0.00     0.210 HD
ENDBRANCH 317 1355
BRANCH 315 1357
ATOM   1357  N4   DC A  13      73.290 110.633 208.159  1.00  0.00    -0.384 N 
ATOM   1358  H41  DC A  13      73.574 109.671 208.269  1.00  0.00     0.157 HD
ATOM   1359  H42  DC A  13      72.995 111.171 208.963  1.00  0.00     0.157 HD
ENDBRANCH 315 1357
TORSDOF 427
ENDMDL
MODEL 9
REMARK VINA RESULT:      -5.7      7.071     20.160
REMARK WARNING: 32 MAX_TORS EXCEEDED!!!
REMARK  99 active torsions:
REMARK  status: ('A' for Active; 'I' for Inactive)
REMARK       I    between atoms: O5'_2  and  C5'_3 
REMARK       I    between atoms: C5'_3  and  C4'_4 
REMARK       I    between atoms: C1'_6  and  N9_7 
REMARK       I    between atoms: C2_10  and  N2_11 
REMARK       I    between atoms: C2'_21  and  O2'_22 
REMARK       I    between atoms: C3'_24  and  O3'_25 
REMARK       I    between atoms: O3'_25  and  P_26 
REMARK       I    between atoms: P_26  and  O5'_29 
REMARK       I    between atoms: O5'_29  and  C5'_30 
REMARK       I    between atoms: C5'_30  and  C4'_31 
REMARK       I    between atoms: C1'_33  and  N9_34 
REMARK       I    between atoms: C2_37  and  N2_38 
REMARK       I    between atoms: C2'_48  and  O2'_49 
REMARK       I    between atoms: C3'_51  and  O3'_52 
REMARK       I    between atoms: O3'_52  and  P_53 
REMARK       I    between atoms: P_53  and  O5'_56 
REMARK       I    between atoms: O5'_56  and  C5'_57 
REMARK       I    between atoms: C5'_57  and  C4'_58 
REMARK       I    between atoms: C1'_60  and  N9_61 
REMARK       I    between atoms: C2_64  and  N2_65 
REMARK       I    between atoms: C2'_75  and  O2'_76 
REMARK       I    between atoms: C3'_78  and  O3'_79 
REMARK       I    between atoms: O3'_79  and  P_80 
REMARK       I    between atoms: P_80  and  O5'_83 
REMARK       I    between atoms: O5'_83  and  C5'_84 
REMARK       I    between atoms: C5'_84  and  C4'_85 
REMARK       I    between atoms: C1'_87  and  N9_88 
REMARK       I    between atoms: C2_91  and  N2_92 
REMARK       I    between atoms: C2'_102  and  O2'_103 
REMARK       I    between atoms: C3'_105  and  O3'_106 
REMARK       I    between atoms: O3'_106  and  P_107 
REMARK       I    between atoms: P_107  and  O5'_110 
REMARK       I    between atoms: O5'_110  and  C5'_111 
REMARK       I    between atoms: C5'_111  and  C4'_112 
REMARK       I    between atoms: C1'_114  and  N9_115 
REMARK       I    between atoms: C2_118  and  N2_119 
REMARK       I    between atoms: C2'_129  and  O2'_130 
REMARK       I    between atoms: C3'_132  and  O3'_133 
REMARK       I    between atoms: O3'_133  and  P_134 
REMARK       I    between atoms: P_134  and  O5'_137 
REMARK       I    between atoms: O5'_137  and  C5'_138 
REMARK       I    between atoms: C5'_138  and  C4'_139 
REMARK       I    between atoms: C1'_141  and  N1_142 
REMARK       I    between atoms: C2'_151  and  O2'_152 
REMARK       I    between atoms: C3'_154  and  O3'_155 
REMARK       I    between atoms: O3'_155  and  P_156 
REMARK       I    between atoms: P_156  and  O5'_159 
REMARK       I    between atoms: O5'_159  and  C5'_160 
REMARK       I    between atoms: C5'_160  and  C4'_161 
REMARK       I    between atoms: C1'_163  and  N9_164 
REMARK       I    between atoms: C2_167  and  N2_168 
REMARK       I    between atoms: C2'_178  and  O2'_179 
REMARK       I    between atoms: C3'_181  and  O3'_182 
REMARK       I    between atoms: O3'_182  and  P_183 
REMARK       I    between atoms: P_183  and  O5'_186 
REMARK       I    between atoms: O5'_186  and  C5'_187 
REMARK       I    between atoms: C5'_187  and  C4'_188 
REMARK       I    between atoms: C1'_190  and  N1_191 
REMARK       I    between atoms: C2'_200  and  O2'_201 
REMARK       I    between atoms: C3'_203  and  O3'_204 
REMARK       I    between atoms: O3'_204  and  P_205 
REMARK       I    between atoms: P_205  and  O5'_208 
REMARK       I    between atoms: O5'_208  and  C5'_209 
REMARK       I    between atoms: C5'_209  and  C4'_210 
REMARK       I    between atoms: C1'_212  and  N9_213 
REMARK       I    between atoms: C6_218  and  N6_219 
REMARK       I    between atoms: C2'_225  and  O2'_226 
REMARK       I    between atoms: C3'_228  and  O3'_229 
REMARK       I    between atoms: O3'_229  and  P_230 
REMARK       I    between atoms: P_230  and  O5'_233 
REMARK       I    between atoms: O5'_233  and  C5'_234 
REMARK       I    between atoms: C5'_234  and  C4'_235 
REMARK       I    between atoms: C1'_237  and  N9_238 
REMARK       I    between atoms: C2_241  and  N2_242 
REMARK       I    between atoms: C2'_252  and  O2'_253 
REMARK       I    between atoms: C3'_255  and  O3'_256 
REMARK       I    between atoms: O3'_256  and  P_257 
REMARK       I    between atoms: P_257  and  O5'_260 
REMARK       I    between atoms: O5'_260  and  C5'_261 
REMARK       I    between atoms: C5'_261  and  C4'_262 
REMARK       I    between atoms: C1'_264  and  N1_265 
REMARK       I    between atoms: C4_270  and  N4_271 
REMARK       I    between atoms: C2'_275  and  O2'_276 
REMARK       I    between atoms: C3'_278  and  O3'_279 
REMARK       I    between atoms: O3'_279  and  P_280 
REMARK       I    between atoms: P_280  and  O5'_283 
REMARK       I    between atoms: O5'_283  and  C5'_284 
REMARK       I    between atoms: C5'_284  and  C4'_285 
REMARK       I    between atoms: C1'_287  and  N1_288 
REMARK       I    between atoms: C2'_297  and  O2'_298 
REMARK       I    between atoms: C3'_300  and  O3'_301 
REMARK       I    between atoms: O3'_301  and  P_302 
REMARK       I    between atoms: P_302  and  O5'_305 
REMARK       I    between atoms: O5'_305  and  C5'_306 
REMARK       I    between atoms: C5'_306  and  C4'_307 
REMARK       I    between atoms: C1'_309  and  N1_310 
REMARK    1  A    between atoms: C4_315  and  N4_316 
REMARK    2  A    between atoms: C2'_320  and  O2'_321 
REMARK    3  A    between atoms: C3'_323  and  O3'_324 
REMARK    4  A    between atoms: O3'_324  and  P_325 
REMARK    5  A    between atoms: P_325  and  O5'_328 
REMARK    6  A    between atoms: O5'_328  and  C5'_329 
REMARK    7  A    between atoms: C5'_329  and  C4'_330 
REMARK    8  A    between atoms: C1'_332  and  N9_333 
REMARK    9  A    between atoms: C6_338  and  N6_339 
REMARK   10  A    between atoms: C2'_345  and  O2'_346 
REMARK   11  A    between atoms: C3'_348  and  O3'_349 
REMARK   12  A    between atoms: O3'_349  and  P_350 
REMARK   13  A    between atoms: P_350  and  O5'_353 
REMARK   14  A    between atoms: O5'_353  and  C5'_354 
REMARK   15  A    between atoms: C5'_354  and  C4'_355 
REMARK   16  A    between atoms: C1'_357  and  N9_358 
REMARK   17  A    between atoms: C2_361  and  N2_362 
REMARK   18  A    between atoms: C2'_372  and  O2'_373 
REMARK   19  A    between atoms: C3'_375  and  O3'_376 
REMARK   20  A    between atoms: O3'_376  and  P_377 
REMARK   21  A    between atoms: P_377  and  O5'_380 
REMARK   22  A    between atoms: O5'_380  and  C5'_381 
REMARK   23  A    between atoms: C5'_381  and  C4'_382 
REMARK   24  A    between atoms: C1'_384  and  N1_385 
REMARK   25  A    between atoms: C2'_394  and  O2'_395 
REMARK   26  A    between atoms: C3'_397  and  O3'_398 
REMARK   27  A    between atoms: O3'_398  and  P_399 
REMARK   28  A    between atoms: P_399  and  O5'_402 
REMARK   29  A    between atoms: O5'_402  and  C5'_403 
REMARK   30  A    between atoms: C5'_403  and  C4'_404 
REMARK   31  A    between atoms: C1'_406  and  N1_407 
REMARK   32  A    between atoms: C2'_416  and  O2'_417 
REMARK   33  A    between atoms: C3'_419  and  O3'_420 
REMARK   34  A    between atoms: O3'_420  and  P_421 
REMARK   35  A    between atoms: P_421  and  O5'_424 
REMARK   36  A    between atoms: O5'_424  and  C5'_425 
REMARK   37  A    between atoms: C5'_425  and  C4'_426 
REMARK   38  A    between atoms: C1'_428  and  N9_429 
REMARK   39  A    between atoms: C2_432  and  N2_433 
REMARK   40  A    between atoms: C2'_443  and  O2'_444 
REMARK   41  A    between atoms: C3'_446  and  O3'_447 
REMARK   42  A    between atoms: O3'_447  and  P_448 
REMARK   43  A    between atoms: P_448  and  O5'_451 
REMARK   44  A    between atoms: O5'_451  and  C5'_452 
REMARK   45  A    between atoms: C5'_452  and  C4'_453 
REMARK   46  A    between atoms: C1'_455  and  N9_456 
REMARK   47  A    between atoms: C2_459  and  N2_460 
REMARK   48  A    between atoms: C2'_470  and  O2'_471 
REMARK   49  A    between atoms: C3'_473  and  O3'_474 
REMARK   50  A    between atoms: O3'_474  and  P_475 
REMARK   51  A    between atoms: P_475  and  O5'_478 
REMARK   52  A    between atoms: O5'_478  and  C5'_479 
REMARK   53  A    between atoms: C5'_479  and  C4'_480 
REMARK   54  A    between atoms: C1'_482  and  N9_483 
REMARK   55  A    between atoms: C2_486  and  N2_487 
REMARK   56  A    between atoms: C2'_497  and  O2'_498 
REMARK   57  A    between atoms: C3'_500  and  O3'_501 
REMARK   58  A    between atoms: O3'_501  and  P_502 
REMARK   59  A    between atoms: P_502  and  O5'_505 
REMARK   60  A    between atoms: O5'_505  and  C5'_506 
REMARK   61  A    between atoms: C5'_506  and  C4'_507 
REMARK   62  A    between atoms: C1'_509  and  N9_510 
REMARK   63  A    between atoms: C6_515  and  N6_516 
REMARK   64  A    between atoms: C2'_522  and  O2'_523 
REMARK   65  A    between atoms: C3'_525  and  O3'_526 
REMARK   66  A    between atoms: O3'_526  and  P_527 
REMARK   67  A    between atoms: P_527  and  O5'_530 
REMARK   68  A    between atoms: O5'_530  and  C5'_531 
REMARK   69  A    between atoms: C5'_531  and  C4'_532 
REMARK   70  A    between atoms: C1'_534  and  N9_535 
REMARK   71  A    between atoms: C2_538  and  N2_539 
REMARK   72  A    between atoms: C2'_549  and  O2'_550 
REMARK   73  A    between atoms: C3'_552  and  O3'_553 
REMARK   74  A    between atoms: O3'_553  and  P_554 
REMARK   75  A    between atoms: P_554  and  O5'_557 
REMARK   76  A    between atoms: O5'_557  and  C5'_558 
REMARK   77  A    between atoms: C5'_558  and  C4'_559 
REMARK   78  A    between atoms: C1'_561  and  N9_562 
REMARK   79  A    between atoms: C6_567  and  N6_568 
REMARK   80  A    between atoms: C2'_574  and  O2'_575 
REMARK   81  A    between atoms: C3'_577  and  O3'_578 
REMARK   82  A    between atoms: O3'_578  and  P_579 
REMARK   83  A    between atoms: P_579  and  O5'_582 
REMARK   84  A    between atoms: O5'_582  and  C5'_583 
REMARK   85  A    between atoms: C5'_583  and  C4'_584 
REMARK   86  A    between atoms: C1'_586  and  N9_587 
REMARK   87  A    between atoms: C2_590  and  N2_591 
REMARK   88  A    between atoms: C2'_601  and  O2'_602 
REMARK   89  A    between atoms: C3'_604  and  O3'_605 
REMARK   90  A    between atoms: O3'_605  and  P_606 
REMARK   91  A    between atoms: P_606  and  O5'_609 
REMARK   92  A    between atoms: O5'_609  and  C5'_610 
REMARK   93  A    between atoms: C5'_610  and  C4'_611 
REMARK   94  A    between atoms: C1'_613  and  N1_614 
REMARK       I    between atoms: C4_619  and  N4_620 
REMARK       I    between atoms: C2'_624  and  O2'_625 
REMARK       I    between atoms: C3'_627  and  O3'_628 
REMARK       I    between atoms: O3'_628  and  P_629 
REMARK       I    between atoms: P_629  and  O5'_632 
REMARK       I    between atoms: O5'_632  and  C5'_633 
REMARK       I    between atoms: C5'_633  and  C4'_634 
REMARK       I    between atoms: C1'_636  and  N9_637 
REMARK       I    between atoms: C2_640  and  N2_641 
REMARK       I    between atoms: C2'_651  and  O2'_652 
REMARK       I    between atoms: C3'_654  and  O3'_655 
REMARK       I    between atoms: O3'_655  and  P_656 
REMARK       I    between atoms: P_656  and  O5'_659 
REMARK       I    between atoms: O5'_659  and  C5'_660 
REMARK       I    between atoms: C5'_660  and  C4'_661 
REMARK       I    between atoms: C1'_663  and  N1_664 
REMARK       I    between atoms: C4_669  and  N4_670 
REMARK       I    between atoms: C2'_674  and  O2'_675 
REMARK       I    between atoms: C3'_677  and  O3'_678 
REMARK       I    between atoms: O3'_678  and  P_679 
REMARK       I    between atoms: P_679  and  O5'_682 
REMARK       I    between atoms: O5'_682  and  C5'_683 
REMARK       I    between atoms: C5'_683  and  C4'_684 
REMARK       I    between atoms: C1'_686  and  N1_687 
REMARK       I    between atoms: C2'_696  and  O2'_697 
REMARK       I    between atoms: C3'_699  and  O3'_700 
REMARK       I    between atoms: O3'_700  and  P_701 
REMARK       I    between atoms: P_701  and  O5'_704 
REMARK       I    between atoms: O5'_704  and  C5'_705 
REMARK       I    between atoms: C5'_705  and  C4'_706 
REMARK       I    between atoms: C1'_708  and  N1_709 
REMARK       I    between atoms: C2'_718  and  O2'_719 
REMARK       I    between atoms: C3'_721  and  O3'_722 
REMARK       I    between atoms: O3'_722  and  P_723 
REMARK       I    between atoms: P_723  and  O5'_726 
REMARK       I    between atoms: O5'_726  and  C5'_727 
REMARK       I    between atoms: C5'_727  and  C4'_728 
REMARK       I    between atoms: C1'_730  and  N1_731 
REMARK       I    between atoms: C4_736  and  N4_737 
REMARK       I    between atoms: C2'_741  and  O2'_742 
REMARK       I    between atoms: C3'_744  and  O3'_745 
REMARK       I    between atoms: O3'_745  and  P_746 
REMARK       I    between atoms: P_746  and  O5'_749 
REMARK       I    between atoms: O5'_749  and  C5'_750 
REMARK       I    between atoms: C5'_750  and  C4'_751 
REMARK       I    between atoms: C1'_753  and  N9_754 
REMARK   95  A    between atoms: C6_759  and  N6_760 
REMARK   96  A    between atoms: C2'_766  and  O2'_767 
REMARK   97  A    between atoms: C3'_769  and  O3'_770 
REMARK   98  A    between atoms: O3'_770  and  P_771 
REMARK   99  A    between atoms: P_771  and  O5'_774 
REMARK       I    between atoms: O5'_774  and  C5'_775 
REMARK       I    between atoms: C5'_775  and  C4'_776 
REMARK       I    between atoms: C1'_778  and  N9_779 
REMARK       I    between atoms: C6_784  and  N6_785 
REMARK       I    between atoms: C2'_791  and  O2'_792 
REMARK       I    between atoms: C3'_794  and  O3'_795 
REMARK       I    between atoms: O3'_795  and  P_796 
REMARK       I    between atoms: P_796  and  O5'_799 
REMARK       I    between atoms: O5'_799  and  C5'_800 
REMARK       I    between atoms: C5'_800  and  C4'_801 
REMARK       I    between atoms: C1'_803  and  N1_804 
REMARK       I    between atoms: C2'_813  and  O2'_814 
REMARK       I    between atoms: C3'_816  and  O3'_817 
REMARK       I    between atoms: O3'_817  and  P_818 
REMARK       I    between atoms: P_818  and  O5'_821 
REMARK       I    between atoms: O5'_821  and  C5'_822 
REMARK       I    between atoms: C5'_822  and  C4'_823 
REMARK       I    between atoms: C1'_825  and  N9_826 
REMARK       I    between atoms: C2_829  and  N2_830 
REMARK       I    between atoms: C2'_840  and  O2'_841 
REMARK       I    between atoms: C3'_843  and  O3'_844 
REMARK       I    between atoms: O3'_844  and  P_845 
REMARK       I    between atoms: P_845  and  O5'_848 
REMARK       I    between atoms: O5'_848  and  C5'_849 
REMARK       I    between atoms: C5'_849  and  C4'_850 
REMARK       I    between atoms: C1'_852  and  N9_853 
REMARK       I    between atoms: C2_856  and  N2_857 
REMARK       I    between atoms: C2'_867  and  O2'_868 
REMARK       I    between atoms: C3'_870  and  O3'_871 
REMARK       I    between atoms: O3'_871  and  P_872 
REMARK       I    between atoms: P_872  and  O5'_875 
REMARK       I    between atoms: O5'_875  and  C5'_876 
REMARK       I    between atoms: C5'_876  and  C4'_877 
REMARK       I    between atoms: C1'_879  and  N1_880 
REMARK       I    between atoms: C4_885  and  N4_886 
REMARK       I    between atoms: C2'_890  and  O2'_891 
REMARK       I    between atoms: C3'_893  and  O3'_894 
REMARK       I    between atoms: O3'_894  and  P_895 
REMARK       I    between atoms: P_895  and  O5'_898 
REMARK       I    between atoms: O5'_898  and  C5'_899 
REMARK       I    between atoms: C5'_899  and  C4'_900 
REMARK       I    between atoms: C1'_902  and  N9_903 
REMARK       I    between atoms: C6_908  and  N6_909 
REMARK       I    between atoms: C2'_915  and  O2'_916 
REMARK       I    between atoms: C3'_918  and  O3'_919 
REMARK       I    between atoms: O3'_919  and  P_920 
REMARK       I    between atoms: P_920  and  O5'_923 
REMARK       I    between atoms: O5'_923  and  C5'_924 
REMARK       I    between atoms: C5'_924  and  C4'_925 
REMARK       I    between atoms: C1'_927  and  N1_928 
REMARK       I    between atoms: C2'_937  and  O2'_938 
REMARK       I    between atoms: C3'_940  and  O3'_941 
REMARK       I    between atoms: O3'_941  and  P_942 
REMARK       I    between atoms: P_942  and  O5'_945 
REMARK       I    between atoms: O5'_945  and  C5'_946 
REMARK       I    between atoms: C5'_946  and  C4'_947 
REMARK       I    between atoms: C1'_949  and  N1_950 
REMARK       I    between atoms: C2'_959  and  O2'_960 
REMARK       I    between atoms: C3'_962  and  O3'_963 
REMARK       I    between atoms: O3'_963  and  P_964 
REMARK       I    between atoms: P_964  and  O5'_967 
REMARK       I    between atoms: O5'_967  and  C5'_968 
REMARK       I    between atoms: C5'_968  and  C4'_969 
REMARK       I    between atoms: C1'_971  and  N9_972 
REMARK       I    between atoms: C2_975  and  N2_976 
REMARK       I    between atoms: C2'_986  and  O2'_987 
REMARK       I    between atoms: C3'_989  and  O3'_990 
REMARK       I    between atoms: O3'_990  and  P_991 
REMARK       I    between atoms: P_991  and  O5'_994 
REMARK       I    between atoms: O5'_994  and  C5'_995 
REMARK       I    between atoms: C5'_995  and  C4'_996 
REMARK       I    between atoms: C1'_998  and  N9_999 
REMARK       I    between atoms: C6_1004  and  N6_1005 
REMARK       I    between atoms: C2'_1011  and  O2'_1012 
REMARK       I    between atoms: C3'_1014  and  O3'_1015 
REMARK       I    between atoms: O3'_1015  and  P_1016 
REMARK       I    between atoms: P_1016  and  O5'_1019 
REMARK       I    between atoms: O5'_1019  and  C5'_1020 
REMARK       I    between atoms: C5'_1020  and  C4'_1021 
REMARK       I    between atoms: C1'_1023  and  N9_1024 
REMARK       I    between atoms: C6_1029  and  N6_1030 
REMARK       I    between atoms: C2'_1036  and  O2'_1037 
REMARK       I    between atoms: C3'_1039  and  O3'_1040 
REMARK       I    between atoms: O3'_1040  and  P_1041 
REMARK       I    between atoms: P_1041  and  O5'_1044 
REMARK       I    between atoms: O5'_1044  and  C5'_1045 
REMARK       I    between atoms: C5'_1045  and  C4'_1046 
REMARK       I    between atoms: C1'_1048  and  N9_1049 
REMARK       I    between atoms: C2_1052  and  N2_1053 
REMARK       I    between atoms: C2'_1063  and  O2'_1064 
REMARK       I    between atoms: C3'_1066  and  O3'_1067 
REMARK       I    between atoms: O3'_1067  and  P_1068 
REMARK       I    between atoms: P_1068  and  O5'_1071 
REMARK       I    between atoms: O5'_1071  and  C5'_1072 
REMARK       I    between atoms: C5'_1072  and  C4'_1073 
REMARK       I    between atoms: C1'_1075  and  N9_1076 
REMARK       I    between atoms: C6_1081  and  N6_1082 
REMARK       I    between atoms: C2'_1088  and  O2'_1089 
REMARK       I    between atoms: C3'_1091  and  O3'_1092 
REMARK       I    between atoms: O3'_1092  and  P_1093 
REMARK       I    between atoms: P_1093  and  O5'_1096 
REMARK       I    between atoms: O5'_1096  and  C5'_1097 
REMARK       I    between atoms: C5'_1097  and  C4'_1098 
REMARK       I    between atoms: C1'_1100  and  N9_1101 
REMARK       I    between atoms: C2_1104  and  N2_1105 
REMARK       I    between atoms: C2'_1115  and  O2'_1116 
REMARK       I    between atoms: C3'_1118  and  O3'_1119 
REMARK       I    between atoms: O3'_1119  and  P_1120 
REMARK       I    between atoms: P_1120  and  O5'_1123 
REMARK       I    between atoms: O5'_1123  and  C5'_1124 
REMARK       I    between atoms: C5'_1124  and  C4'_1125 
REMARK       I    between atoms: C1'_1127  and  N9_1128 
REMARK       I    between atoms: C2_1131  and  N2_1132 
REMARK       I    between atoms: C2'_1142  and  O2'_1143 
REMARK       I    between atoms: C3'_1145  and  O3'_1146 
REMARK       I    between atoms: O3'_1146  and  P_1147 
REMARK       I    between atoms: P_1147  and  O5'_1150 
REMARK       I    between atoms: O5'_1150  and  C5'_1151 
REMARK       I    between atoms: C5'_1151  and  C4'_1152 
REMARK       I    between atoms: C1'_1154  and  N1_1155 
REMARK       I    between atoms: C2'_1164  and  O2'_1165 
REMARK       I    between atoms: C3'_1167  and  O3'_1168 
REMARK       I    between atoms: O3'_1168  and  P_1169 
REMARK       I    between atoms: P_1169  and  O5'_1172 
REMARK       I    between atoms: O5'_1172  and  C5'_1173 
REMARK       I    between atoms: C5'_1173  and  C4'_1174 
REMARK       I    between atoms: C1'_1176  and  N1_1177 
REMARK       I    between atoms: C4_1182  and  N4_1183 
REMARK       I    between atoms: C2'_1187  and  O2'_1188 
REMARK       I    between atoms: C3'_1190  and  O3'_1191 
REMARK       I    between atoms: O3'_1191  and  P_1192 
REMARK       I    between atoms: P_1192  and  O5'_1195 
REMARK       I    between atoms: O5'_1195  and  C5'_1196 
REMARK       I    between atoms: C5'_1196  and  C4'_1197 
REMARK       I    between atoms: C1'_1199  and  N9_1200 
REMARK       I    between atoms: C6_1205  and  N6_1206 
REMARK       I    between atoms: C2'_1212  and  O2'_1213 
REMARK       I    between atoms: C3'_1215  and  O3'_1216 
REMARK       I    between atoms: O3'_1216  and  P_1217 
REMARK       I    between atoms: P_1217  and  O5'_1220 
REMARK       I    between atoms: O5'_1220  and  C5'_1221 
REMARK       I    between atoms: C5'_1221  and  C4'_1222 
REMARK       I    between atoms: C1'_1224  and  N9_1225 
REMARK       I    between atoms: C2_1228  and  N2_1229 
REMARK       I    between atoms: C2'_1239  and  O2'_1240 
REMARK       I    between atoms: C3'_1242  and  O3'_1243 
REMARK       I    between atoms: O3'_1243  and  P_1244 
REMARK       I    between atoms: P_1244  and  O5'_1247 
REMARK       I    between atoms: O5'_1247  and  C5'_1248 
REMARK       I    between atoms: C5'_1248  and  C4'_1249 
REMARK       I    between atoms: C1'_1251  and  N1_1252 
REMARK       I    between atoms: C4_1257  and  N4_1258 
REMARK       I    between atoms: C2'_1262  and  O2'_1263 
REMARK       I    between atoms: C3'_1265  and  O3'_1266 
REMARK       I    between atoms: O3'_1266  and  P_1267 
REMARK       I    between atoms: P_1267  and  O5'_1270 
REMARK       I    between atoms: O5'_1270  and  C5'_1271 
REMARK       I    between atoms: C5'_1271  and  C4'_1272 
REMARK       I    between atoms: C1'_1274  and  N1_1275 
REMARK       I    between atoms: C4_1280  and  N4_1281 
REMARK       I    between atoms: C2'_1285  and  O2'_1286 
REMARK       I    between atoms: C3'_1288  and  O3'_1289 
REMARK       I    between atoms: O3'_1289  and  P_1290 
REMARK       I    between atoms: P_1290  and  O5'_1293 
REMARK       I    between atoms: O5'_1293  and  C5'_1294 
REMARK       I    between atoms: C5'_1294  and  C4'_1295 
REMARK       I    between atoms: C1'_1297  and  N1_1298 
REMARK       I    between atoms: C4_1303  and  N4_1304 
REMARK       I    between atoms: C2'_1308  and  O2'_1309 
REMARK       I    between atoms: C3'_1311  and  O3'_1312 
REMARK       I    between atoms: O3'_1312  and  P_1313 
REMARK       I    between atoms: P_1313  and  O5'_1316 
REMARK       I    between atoms: O5'_1316  and  C5'_1317 
REMARK       I    between atoms: C5'_1317  and  C4'_1318 
REMARK       I    between atoms: C1'_1320  and  N1_1321 
REMARK       I    between atoms: C4_1326  and  N4_1327 
REMARK       I    between atoms: C2'_1331  and  O2'_1332 
REMARK       I    between atoms: C3'_1334  and  O3'_1335 
REMARK       I    between atoms: O3'_1335  and  P_1336 
REMARK       I    between atoms: P_1336  and  O5'_1339 
REMARK       I    between atoms: O5'_1339  and  C5'_1340 
REMARK       I    between atoms: C5'_1340  and  C4'_1341 
REMARK       I    between atoms: C1'_1343  and  N1_1344 
REMARK       I    between atoms: C4_1349  and  N4_1350 
REMARK       I    between atoms: C2'_1354  and  O2'_1355 
REMARK       I    between atoms: C3'_1357  and  O3'_1358 
ROOT
ATOM      1 5'HO  DG A   1     106.306  99.681 215.081  1.00  0.00     0.209 HD
ATOM      2  O5'  DG A   1     106.314 100.621 214.880  1.00  0.00    -0.398 OA
ATOM      3  C5'  DG A   1     106.976 100.774 213.621  1.00  0.00     0.198 C 
ATOM      4  C4'  DG A   1     107.164  99.435 212.946  1.00  0.00     0.180 C 
ATOM      5  O4'  DG A   1     108.129  98.660 213.709  1.00  0.00    -0.353 OA
ATOM      6  C1'  DG A   1     107.679  97.323 213.836  1.00  0.00     0.262 C 
ATOM      7  N9   DG A   1     107.345  97.083 215.237  1.00  0.00    -0.293 N 
ATOM      8  C4   DG A   1     106.880  95.907 215.777  1.00  0.00     0.187 A 
ATOM      9  N3   DG A   1     106.648  94.762 215.102  1.00  0.00    -0.044 NA
ATOM     10  C2   DG A   1     106.206  93.804 215.897  1.00  0.00     0.703 A 
ATOM     11  N2   DG A   1     105.928  92.599 215.391  1.00  0.00    -0.233 N 
ATOM     12  H21  DG A   1     106.059  92.435 214.404  1.00  0.00     0.174 HD
ATOM     13  H22  DG A   1     105.591  91.860 215.993  1.00  0.00     0.174 HD
ATOM     14  N1   DG A   1     106.005  93.954 217.244  1.00  0.00    -0.153 N 
ATOM     15  H1   DG A   1     105.664  93.157 217.758  1.00  0.00     0.187 HD
ATOM     16  C6   DG A   1     106.235  95.122 217.961  1.00  0.00     0.292 A 
ATOM     17  O6   DG A   1     106.020  95.148 219.180  1.00  0.00    -0.265 OA
ATOM     18  C5   DG A   1     106.711  96.164 217.122  1.00  0.00     0.173 A 
ATOM     19  N7   DG A   1     107.062  97.473 217.422  1.00  0.00    -0.234 NA
ATOM     20  C8   DG A   1     107.430  97.977 216.277  1.00  0.00     0.214 A 
ATOM     21  C2'  DG A   1     106.499  97.152 212.882  1.00  0.00     0.199 C 
ATOM     22  O2'  DG A   1     106.995  96.801 211.602  1.00  0.00    -0.388 OA
ATOM     23 2'HO  DG A   1     106.314  97.032 210.970  1.00  0.00     0.210 HD
ATOM     24  C3'  DG A   1     105.918  98.560 212.881  1.00  0.00     0.198 C 
ATOM     25  O3'  DG A   1     105.151  98.832 211.710  1.00  0.00    -0.279 OA
ATOM     26  P    DG A   2     103.549  98.699 211.755  1.00  0.00     0.408 P 
ATOM     27  OP1  DG A   2     103.038  99.125 210.426  1.00  0.00    -0.624 OA
ATOM     28  OP2  DG A   2     103.056  99.377 212.981  1.00  0.00    -0.624 OA
ATOM     29  O5'  DG A   2     103.295  97.134 211.909  1.00  0.00    -0.287 OA
ATOM     30  C5'  DG A   2     103.641  96.226 210.865  1.00  0.00     0.216 C 
ATOM     31  C4'  DG A   2     103.071  94.856 211.153  1.00  0.00     0.180 C 
ATOM     32  O4'  DG A   2     103.866  94.218 212.189  1.00  0.00    -0.353 OA
ATOM     33  C1'  DG A   2     103.022  93.452 213.033  1.00  0.00     0.262 C 
ATOM     34  N9   DG A   2     103.097  93.999 214.384  1.00  0.00    -0.293 N 
ATOM     35  C4   DG A   2     102.738  93.359 215.545  1.00  0.00     0.187 A 
ATOM     36  N3   DG A   2     102.254  92.104 215.642  1.00  0.00    -0.044 NA
ATOM     37  C2   DG A   2     101.998  91.769 216.894  1.00  0.00     0.703 A 
ATOM     38  N2   DG A   2     101.510  90.557 217.169  1.00  0.00    -0.233 N 
ATOM     39  H21  DG A   2     101.341  89.908 216.414  1.00  0.00     0.174 HD
ATOM     40  H22  DG A   2     101.308  90.292 218.123  1.00  0.00     0.174 HD
ATOM     41  N1   DG A   2     102.202  92.597 217.968  1.00  0.00    -0.153 N 
ATOM     42  H1   DG A   2     101.971  92.242 218.882  1.00  0.00     0.187 HD
ATOM     43  C6   DG A   2     102.701  93.891 217.895  1.00  0.00     0.292 A 
ATOM     44  O6   DG A   2     102.849  94.551 218.930  1.00  0.00    -0.265 OA
ATOM     45  C5   DG A   2     102.980  94.269 216.554  1.00  0.00     0.173 A 
ATOM     46  N7   DG A   2     103.481  95.456 216.038  1.00  0.00    -0.234 NA
ATOM     47  C8   DG A   2     103.533  95.249 214.751  1.00  0.00     0.214 A 
ATOM     48  C2'  DG A   2     101.615  93.499 212.437  1.00  0.00     0.199 C 
ATOM     49  O2'  DG A   2     101.468  92.421 211.532  1.00  0.00    -0.388 OA
ATOM     50 2'HO  DG A   2     100.532  92.221 211.492  1.00  0.00     0.210 HD
ATOM     51  C3'  DG A   2     101.654  94.836 211.707  1.00  0.00     0.198 C 
ATOM     52  O3'  DG A   2     100.678  94.925 210.674  1.00  0.00    -0.279 OA
ATOM     53  P    DG A   3      99.202  95.465 211.015  1.00  0.00     0.408 P 
ATOM     54  OP1  DG A   3      98.412  95.415 209.758  1.00  0.00    -0.624 OA
ATOM     55  OP2  DG A   3      99.331  96.751 211.748  1.00  0.00    -0.624 OA
ATOM     56  O5'  DG A   3      98.613  94.375 212.017  1.00  0.00    -0.287 OA
ATOM     57  C5'  DG A   3      98.013  93.177 211.528  1.00  0.00     0.216 C 
ATOM     58  C4'  DG A   3      97.841  92.177 212.650  1.00  0.00     0.180 C 
ATOM     59  O4'  DG A   3      98.963  92.270 213.565  1.00  0.00    -0.353 OA
ATOM     60  C1'  DG A   3      98.548  91.853 214.854  1.00  0.00     0.262 C 
ATOM     61  N9   DG A   3      98.953  92.866 215.825  1.00  0.00    -0.293 N 
ATOM     62  C4   DG A   3      98.801  92.790 217.188  1.00  0.00     0.187 A 
ATOM     63  N3   DG A   3      98.250  91.763 217.868  1.00  0.00    -0.044 NA
ATOM     64  C2   DG A   3      98.241  91.982 219.171  1.00  0.00     0.703 A 
ATOM     65  N2   DG A   3      97.724  91.068 219.995  1.00  0.00    -0.233 N 
ATOM     66  H21  DG A   3      97.344  90.216 219.609  1.00  0.00     0.174 HD
ATOM     67  H22  DG A   3      97.706  91.228 220.993  1.00  0.00     0.174 HD
ATOM     68  N1   DG A   3      98.740  93.115 219.763  1.00  0.00    -0.153 N 
ATOM     69  H1   DG A   3      98.683  93.179 220.767  1.00  0.00     0.187 HD
ATOM     70  C6   DG A   3      99.316  94.184 219.085  1.00  0.00     0.292 A 
ATOM     71  O6   DG A   3      99.737  95.157 219.720  1.00  0.00    -0.265 OA
ATOM     72  C5   DG A   3      99.327  93.965 217.682  1.00  0.00     0.173 A 
ATOM     73  N7   DG A   3      99.799  94.766 216.649  1.00  0.00    -0.234 NA
ATOM     74  C8   DG A   3      99.554  94.074 215.570  1.00  0.00     0.214 A 
ATOM     75  C2'  DG A   3      97.035  91.621 214.812  1.00  0.00     0.199 C 
ATOM     76  O2'  DG A   3      96.799  90.234 214.656  1.00  0.00    -0.388 OA
ATOM     77 2'HO  DG A   3      96.096  90.147 214.011  1.00  0.00     0.210 HD
ATOM     78  C3'  DG A   3      96.639  92.391 213.555  1.00  0.00     0.198 C 
ATOM     79  O3'  DG A   3      95.440  91.890 212.969  1.00  0.00    -0.279 OA
ATOM     80  P    DG A   4      94.016  92.488 213.423  1.00  0.00     0.408 P 
ATOM     81  OP1  DG A   4      92.966  91.657 212.780  1.00  0.00    -0.624 OA
ATOM     82  OP2  DG A   4      94.030  93.956 213.197  1.00  0.00    -0.624 OA
ATOM     83  O5'  DG A   4      93.965  92.222 214.995  1.00  0.00    -0.287 OA
ATOM     84  C5'  DG A   4      93.885  90.895 215.514  1.00  0.00     0.216 C 
ATOM     85  C4'  DG A   4      93.535  90.928 216.984  1.00  0.00     0.180 C 
ATOM     86  O4'  DG A   4      94.726  91.236 217.753  1.00  0.00    -0.353 OA
ATOM     87  C1'  DG A   4      94.356  91.917 218.939  1.00  0.00     0.262 C 
ATOM     88  N9   DG A   4      95.114  93.161 219.016  1.00  0.00    -0.293 N 
ATOM     89  C4   DG A   4      95.428  93.852 220.161  1.00  0.00     0.187 A 
ATOM     90  N3   DG A   4      95.092  93.497 221.417  1.00  0.00    -0.044 NA
ATOM     91  C2   DG A   4      95.535  94.362 222.310  1.00  0.00     0.703 A 
ATOM     92  N2   DG A   4      95.296  94.155 223.606  1.00  0.00    -0.233 N 
ATOM     93  H21  DG A   4      94.777  93.335 223.886  1.00  0.00     0.174 HD
ATOM     94  H22  DG A   4      95.629  94.808 224.301  1.00  0.00     0.174 HD
ATOM     95  N1   DG A   4      96.248  95.491 221.997  1.00  0.00    -0.153 N 
ATOM     96  H1   DG A   4      96.535  96.094 222.752  1.00  0.00     0.187 HD
ATOM     97  C6   DG A   4      96.608  95.879 220.712  1.00  0.00     0.292 A 
ATOM     98  O6   DG A   4      97.256  96.917 220.543  1.00  0.00    -0.265 OA
ATOM     99  C5   DG A   4      96.140  94.956 219.739  1.00  0.00     0.173 A 
ATOM    100  N7   DG A   4      96.274  94.957 218.356  1.00  0.00    -0.234 NA
ATOM    101  C8   DG A   4      95.652  93.875 217.973  1.00  0.00     0.214 A 
ATOM    102  C2'  DG A   4      92.840  92.131 218.905  1.00  0.00     0.199 C 
ATOM    103  O2'  DG A   4      92.224  91.089 219.640  1.00  0.00    -0.388 OA
ATOM    104 2'HO  DG A   4      91.299  91.321 219.734  1.00  0.00     0.210 HD
ATOM    105  C3'  DG A   4      92.549  92.004 217.413  1.00  0.00     0.198 C 
ATOM    106  O3'  DG A   4      91.200  91.622 217.149  1.00  0.00    -0.279 OA
ATOM    107  P    DG A   5      90.108  92.743 216.771  1.00  0.00     0.408 P 
ATOM    108  OP1  DG A   5      89.054  92.071 215.968  1.00  0.00    -0.624 OA
ATOM    109  OP2  DG A   5      90.808  93.928 216.213  1.00  0.00    -0.624 OA
ATOM    110  O5'  DG A   5      89.474  93.158 218.175  1.00  0.00    -0.287 OA
ATOM    111  C5'  DG A   5      88.404  92.409 218.751  1.00  0.00     0.216 C 
ATOM    112  C4'  DG A   5      88.531  92.390 220.259  1.00  0.00     0.180 C 
ATOM    113  O4'  DG A   5      89.938  92.429 220.618  1.00  0.00    -0.353 OA
ATOM    114  C1'  DG A   5      90.106  93.179 221.808  1.00  0.00     0.262 C 
ATOM    115  N9   DG A   5      90.990  94.305 221.526  1.00  0.00    -0.293 N 
ATOM    116  C4   DG A   5      91.800  94.952 222.428  1.00  0.00     0.187 A 
ATOM    117  N3   DG A   5      91.924  94.657 223.739  1.00  0.00    -0.044 NA
ATOM    118  C2   DG A   5      92.781  95.456 224.346  1.00  0.00     0.703 A 
ATOM    119  N2   DG A   5      93.026  95.301 225.650  1.00  0.00    -0.233 N 
ATOM    120  H21  DG A   5      92.549  94.572 226.160  1.00  0.00     0.174 HD
ATOM    121  H22  DG A   5      93.685  95.901 226.124  1.00  0.00     0.174 HD
ATOM    122  N1   DG A   5      93.465  96.466 223.721  1.00  0.00    -0.153 N 
ATOM    123  H1   DG A   5      94.100  97.014 224.281  1.00  0.00     0.187 HD
ATOM    124  C6   DG A   5      93.354  96.792 222.375  1.00  0.00     0.292 A 
ATOM    125  O6   DG A   5      94.017  97.727 221.914  1.00  0.00    -0.265 OA
ATOM    126  C5   DG A   5      92.435  95.941 221.706  1.00  0.00     0.173 A 
ATOM    127  N7   DG A   5      92.032  95.917 220.377  1.00  0.00    -0.234 NA
ATOM    128  C8   DG A   5      91.177  94.933 220.319  1.00  0.00     0.214 A 
ATOM    129  C2'  DG A   5      88.718  93.604 222.292  1.00  0.00     0.199 C 
ATOM    130  O2'  DG A   5      88.235  92.630 223.197  1.00  0.00    -0.388 OA
ATOM    131 2'HO  DG A   5      87.328  92.451 222.949  1.00  0.00     0.210 HD
ATOM    132  C3'  DG A   5      87.929  93.582 220.988  1.00  0.00     0.198 C 
ATOM    133  O3'  DG A   5      86.530  93.417 221.210  1.00  0.00    -0.279 OA
ATOM    134  P    DT A   6      85.587  94.712 221.369  1.00  0.00     0.408 P 
ATOM    135  OP1  DT A   6      84.294  94.252 221.936  1.00  0.00    -0.624 OA
ATOM    136  OP2  DT A   6      85.601  95.456 220.085  1.00  0.00    -0.624 OA
ATOM    137  O5'  DT A   6      86.328  95.599 222.467  1.00  0.00    -0.287 OA
ATOM    138  C5'  DT A   6      86.329  95.220 223.843  1.00  0.00     0.216 C 
ATOM    139  C4'  DT A   6      86.783  96.377 224.704  1.00  0.00     0.180 C 
ATOM    140  O4'  DT A   6      88.221  96.537 224.582  1.00  0.00    -0.353 OA
ATOM    141  C1'  DT A   6      88.557  97.908 224.713  1.00  0.00     0.264 C 
ATOM    142  N1   DT A   6      89.280  98.332 223.504  1.00  0.00    -0.280 N 
ATOM    143  C6   DT A   6      89.171  97.635 222.321  1.00  0.00     0.104 A 
ATOM    144  C2   DT A   6      90.071  99.461 223.595  1.00  0.00     0.331 A 
ATOM    145  O2   DT A   6      90.196 100.103 224.621  1.00  0.00    -0.246 OA
ATOM    146  N3   DT A   6      90.716  99.813 222.437  1.00  0.00    -0.275 N 
ATOM    147  H3   DT A   6      91.282 100.647 222.473  1.00  0.00     0.173 HD
ATOM    148  C4   DT A   6      90.655  99.164 221.226  1.00  0.00     0.250 A 
ATOM    149  O4   DT A   6      91.304  99.602 220.276  1.00  0.00    -0.268 OA
ATOM    150  C5   DT A   6      89.818  98.006 221.211  1.00  0.00     0.092 A 
ATOM    151  C2'  DT A   6      87.259  98.682 224.949  1.00  0.00     0.199 C 
ATOM    152  O2'  DT A   6      87.054  98.804 226.344  1.00  0.00    -0.388 OA
ATOM    153 2'HO  DT A   6      86.514  99.584 226.479  1.00  0.00     0.210 HD
ATOM    154  C3'  DT A   6      86.239  97.744 224.317  1.00  0.00     0.198 C 
ATOM    155  O3'  DT A   6      84.920  97.950 224.813  1.00  0.00    -0.279 OA
ATOM    156  P    DG A   7      83.933  98.968 224.054  1.00  0.00     0.408 P 
ATOM    157  OP1  DG A   7      82.591  98.827 224.676  1.00  0.00    -0.624 OA
ATOM    158  OP2  DG A   7      84.086  98.771 222.590  1.00  0.00    -0.624 OA
ATOM    159  O5'  DG A   7      84.503 100.409 224.424  1.00  0.00    -0.287 OA
ATOM    160  C5'  DG A   7      84.361 100.938 225.741  1.00  0.00     0.216 C 
ATOM    161  C4'  DG A   7      85.159 102.215 225.883  1.00  0.00     0.180 C 
ATOM    162  O4'  DG A   7      86.543 101.970 225.529  1.00  0.00    -0.353 OA
ATOM    163  C1'  DG A   7      87.123 103.173 225.055  1.00  0.00     0.262 C 
ATOM    164  N9   DG A   7      87.769 102.904 223.773  1.00  0.00    -0.293 N 
ATOM    165  C4   DG A   7      88.733 103.675 223.169  1.00  0.00     0.187 A 
ATOM    166  N3   DG A   7      89.256 104.819 223.658  1.00  0.00    -0.044 NA
ATOM    167  C2   DG A   7      90.166 105.331 222.849  1.00  0.00     0.703 A 
ATOM    168  N2   DG A   7      90.786 106.465 223.182  1.00  0.00    -0.233 N 
ATOM    169  H21  DG A   7      90.554 106.921 224.052  1.00  0.00     0.174 HD
ATOM    170  H22  DG A   7      91.477 106.871 222.565  1.00  0.00     0.174 HD
ATOM    171  N1   DG A   7      90.534 104.769 221.654  1.00  0.00    -0.153 N 
ATOM    172  H1   DG A   7      91.240 105.245 221.113  1.00  0.00     0.187 HD
ATOM    173  C6   DG A   7      90.010 103.594 221.128  1.00  0.00     0.292 A 
ATOM    174  O6   DG A   7      90.413 103.176 220.037  1.00  0.00    -0.265 OA
ATOM    175  C5   DG A   7      89.032 103.029 221.988  1.00  0.00     0.173 A 
ATOM    176  N7   DG A   7      88.270 101.875 221.851  1.00  0.00    -0.234 NA
ATOM    177  C8   DG A   7      87.537 101.845 222.931  1.00  0.00     0.214 A 
ATOM    178  C2'  DG A   7      86.015 104.226 224.966  1.00  0.00     0.199 C 
ATOM    179  O2'  DG A   7      86.065 105.034 226.127  1.00  0.00    -0.388 OA
ATOM    180 2'HO  DG A   7      85.564 105.827 225.932  1.00  0.00     0.210 HD
ATOM    181  C3'  DG A   7      84.764 103.353 224.956  1.00  0.00     0.198 C 
ATOM    182  O3'  DG A   7      83.612 104.048 225.428  1.00  0.00    -0.279 OA
ATOM    183  P    DT A   8      82.738 104.930 224.406  1.00  0.00     0.408 P 
ATOM    184  OP1  DT A   8      81.724 105.662 225.208  1.00  0.00    -0.624 OA
ATOM    185  OP2  DT A   8      82.297 104.053 223.290  1.00  0.00    -0.624 OA
ATOM    186  O5'  DT A   8      83.776 105.989 223.822  1.00  0.00    -0.287 OA
ATOM    187  C5'  DT A   8      83.827 107.327 224.319  1.00  0.00     0.216 C 
ATOM    188  C4'  DT A   8      85.214 107.904 224.136  1.00  0.00     0.180 C 
ATOM    189  O4'  DT A   8      86.141 106.839 223.797  1.00  0.00    -0.353 OA
ATOM    190  C1'  DT A   8      87.140 107.336 222.925  1.00  0.00     0.264 C 
ATOM    191  N1   DT A   8      87.134 106.524 221.699  1.00  0.00    -0.280 N 
ATOM    192  C6   DT A   8      86.127 105.619 221.444  1.00  0.00     0.104 A 
ATOM    193  C2   DT A   8      88.176 106.698 220.806  1.00  0.00     0.331 A 
ATOM    194  O2   DT A   8      89.084 107.488 220.991  1.00  0.00    -0.246 OA
ATOM    195  N3   DT A   8      88.117 105.911 219.686  1.00  0.00    -0.275 N 
ATOM    196  H3   DT A   8      88.866 106.025 219.021  1.00  0.00     0.173 HD
ATOM    197  C4   DT A   8      87.148 104.988 219.371  1.00  0.00     0.250 A 
ATOM    198  O4   DT A   8      87.239 104.354 218.320  1.00  0.00    -0.268 OA
ATOM    199  C5   DT A   8      86.104 104.867 220.340  1.00  0.00     0.092 A 
ATOM    200  C2'  DT A   8      86.856 108.820 222.682  1.00  0.00     0.199 C 
ATOM    201  O2'  DT A   8      87.614 109.580 223.604  1.00  0.00    -0.388 OA
ATOM    202 2'HO  DT A   8      86.987 110.031 224.170  1.00  0.00     0.210 HD
ATOM    203  C3'  DT A   8      85.365 108.899 222.994  1.00  0.00     0.198 C 
ATOM    204  O3'  DT A   8      84.954 110.206 223.390  1.00  0.00    -0.279 OA
ATOM    205  P    DA A   9      84.848 111.382 222.294  1.00  0.00     0.408 P 
ATOM    206  OP1  DA A   9      85.879 111.126 221.257  1.00  0.00    -0.624 OA
ATOM    207  OP2  DA A   9      84.853 112.676 223.024  1.00  0.00    -0.624 OA
ATOM    208  O5'  DA A   9      83.402 111.186 221.652  1.00  0.00    -0.287 OA
ATOM    209  C5'  DA A   9      83.201 110.344 220.515  1.00  0.00     0.216 C 
ATOM    210  C4'  DA A   9      83.491 111.105 219.243  1.00  0.00     0.180 C 
ATOM    211  O4'  DA A   9      84.868 110.840 218.858  1.00  0.00    -0.353 OA
ATOM    212  C1'  DA A   9      84.935 110.532 217.482  1.00  0.00     0.262 C 
ATOM    213  N9   DA A   9      85.266 109.113 217.345  1.00  0.00    -0.294 N 
ATOM    214  C4   DA A   9      84.394 108.082 217.086  1.00  0.00     0.167 A 
ATOM    215  N3   DA A   9      83.065 108.163 216.909  1.00  0.00    -0.222 NA
ATOM    216  C2   DA A   9      82.547 106.960 216.677  1.00  0.00     0.237 A 
ATOM    217  N1   DA A   9      83.162 105.773 216.605  1.00  0.00    -0.222 NA
ATOM    218  C6   DA A   9      84.499 105.727 216.785  1.00  0.00     0.155 A 
ATOM    219  N6   DA A   9      85.108 104.544 216.710  1.00  0.00    -0.382 N 
ATOM    220  H61  DA A   9      86.108 104.480 216.841  1.00  0.00     0.157 HD
ATOM    221  H62  DA A   9      84.564 103.718 216.514  1.00  0.00     0.157 HD
ATOM    222  C5   DA A   9      85.166 106.937 217.043  1.00  0.00     0.149 A 
ATOM    223  N7   DA A   9      86.503 107.236 217.273  1.00  0.00    -0.236 NA
ATOM    224  C8   DA A   9      86.508 108.535 217.448  1.00  0.00     0.214 A 
ATOM    225  C2'  DA A   9      83.595 110.930 216.864  1.00  0.00     0.199 C 
ATOM    226  O2'  DA A   9      83.657 112.297 216.505  1.00  0.00    -0.388 OA
ATOM    227 2'HO  DA A   9      82.774 112.564 216.248  1.00  0.00     0.210 HD
ATOM    228  C3'  DA A   9      82.647 110.703 218.036  1.00  0.00     0.198 C 
ATOM    229  O3'  DA A   9      81.466 111.496 217.935  1.00  0.00    -0.279 OA
ATOM    230  P    DG A  10      80.189 110.936 217.128  1.00  0.00     0.408 P 
ATOM    231  OP1  DG A  10      80.529 109.592 216.591  1.00  0.00    -0.624 OA
ATOM    232  OP2  DG A  10      78.991 111.098 217.991  1.00  0.00    -0.624 OA
ATOM    233  O5'  DG A  10      80.045 111.930 215.890  1.00  0.00    -0.287 OA
ATOM    234  C5'  DG A  10      79.831 113.327 216.085  1.00  0.00     0.216 C 
ATOM    235  C4'  DG A  10      80.778 114.128 215.219  1.00  0.00     0.180 C 
ATOM    236  O4'  DG A  10      81.841 113.259 214.743  1.00  0.00    -0.353 OA
ATOM    237  C1'  DG A  10      82.179 113.599 213.410  1.00  0.00     0.262 C 
ATOM    238  N9   DG A  10      81.893 112.451 212.554  1.00  0.00    -0.293 N 
ATOM    239  C4   DG A  10      82.148 112.355 211.208  1.00  0.00     0.187 A 
ATOM    240  N3   DG A  10      82.708 113.309 210.437  1.00  0.00    -0.044 NA
ATOM    241  C2   DG A  10      82.825 112.922 209.180  1.00  0.00     0.703 A 
ATOM    242  N2   DG A  10      83.359 113.750 208.278  1.00  0.00    -0.233 N 
ATOM    243  H21  DG A  10      83.668 114.666 208.571  1.00  0.00     0.174 HD
ATOM    244  H22  DG A  10      83.461 113.463 207.314  1.00  0.00     0.174 HD
ATOM    245  N1   DG A  10      82.427 111.697 208.712  1.00  0.00    -0.153 N 
ATOM    246  H1   DG A  10      82.564 111.500 207.734  1.00  0.00     0.187 HD
ATOM    247  C6   DG A  10      81.847 110.697 209.486  1.00  0.00     0.292 A 
ATOM    248  O6   DG A  10      81.521 109.627 208.959  1.00  0.00    -0.265 OA
ATOM    249  C5   DG A  10      81.713 111.098 210.841  1.00  0.00     0.173 A 
ATOM    250  N7   DG A  10      81.193 110.417 211.936  1.00  0.00    -0.234 NA
ATOM    251  C8   DG A  10      81.321 111.258 212.926  1.00  0.00     0.214 A 
ATOM    252  C2'  DG A  10      81.384 114.851 213.039  1.00  0.00     0.199 C 
ATOM    253  O2'  DG A  10      82.150 115.992 213.378  1.00  0.00    -0.388 OA
ATOM    254 2'HO  DG A  10      81.636 116.494 214.010  1.00  0.00     0.210 HD
ATOM    255  C3'  DG A  10      80.170 114.713 213.951  1.00  0.00     0.198 C 
ATOM    256  O3'  DG A  10      79.537 115.966 214.203  1.00  0.00    -0.279 OA
ATOM    257  P    DC A  11      78.146 116.322 213.474  1.00  0.00     0.408 P 
ATOM    258  OP1  DC A  11      77.617 117.552 214.114  1.00  0.00    -0.624 OA
ATOM    259  OP2  DC A  11      77.308 115.096 213.435  1.00  0.00    -0.624 OA
ATOM    260  O5'  DC A  11      78.571 116.680 211.979  1.00  0.00    -0.287 OA
ATOM    261  C5'  DC A  11      79.326 117.857 211.690  1.00  0.00     0.216 C 
ATOM    262  C4'  DC A  11      79.484 118.022 210.196  1.00  0.00     0.180 C 
ATOM    263  O4'  DC A  11      80.453 117.048 209.720  1.00  0.00    -0.353 OA
ATOM    264  C1'  DC A  11      79.990 116.456 208.520  1.00  0.00     0.264 C 
ATOM    265  N1   DC A  11      79.666 115.045 208.789  1.00  0.00    -0.278 N 
ATOM    266  C6   DC A  11      79.432 114.611 210.064  1.00  0.00     0.102 A 
ATOM    267  C2   DC A  11      79.603 114.152 207.718  1.00  0.00     0.352 A 
ATOM    268  O2   DC A  11      79.812 114.571 206.571  1.00  0.00    -0.244 OA
ATOM    269  N3   DC A  11      79.315 112.853 207.957  1.00  0.00    -0.177 NA
ATOM    270  C4   DC A  11      79.094 112.438 209.205  1.00  0.00     0.128 A 
ATOM    271  N4   DC A  11      78.817 111.149 209.391  1.00  0.00    -0.384 N 
ATOM    272  H41  DC A  11      78.643 110.794 210.321  1.00  0.00     0.157 HD
ATOM    273  H42  DC A  11      78.786 110.524 208.598  1.00  0.00     0.157 HD
ATOM    274  C5   DC A  11      79.147 113.328 210.316  1.00  0.00     0.067 A 
ATOM    275  C2'  DC A  11      78.797 117.281 208.042  1.00  0.00     0.199 C 
ATOM    276  O2'  DC A  11      79.278 118.362 207.264  1.00  0.00    -0.388 OA
ATOM    277 2'HO  DC A  11      78.907 119.161 207.641  1.00  0.00     0.210 HD
ATOM    278  C3'  DC A  11      78.228 117.765 209.370  1.00  0.00     0.198 C 
ATOM    279  O3'  DC A  11      77.442 118.944 209.222  1.00  0.00    -0.279 OA
ATOM    280  P    DT A  12      75.882 118.823 208.847  1.00  0.00     0.408 P 
ATOM    281  OP1  DT A  12      75.331 120.200 208.793  1.00  0.00    -0.624 OA
ATOM    282  OP2  DT A  12      75.260 117.818 209.747  1.00  0.00    -0.624 OA
ATOM    283  O5'  DT A  12      75.883 118.227 207.368  1.00  0.00    -0.287 OA
ATOM    284  C5'  DT A  12      76.402 118.979 206.271  1.00  0.00     0.216 C 
ATOM    285  C4'  DT A  12      76.010 118.332 204.963  1.00  0.00     0.180 C 
ATOM    286  O4'  DT A  12      76.880 117.192 204.722  1.00  0.00    -0.353 OA
ATOM    287  C1'  DT A  12      76.132 116.126 204.163  1.00  0.00     0.264 C 
ATOM    288  N1   DT A  12      76.147 115.004 205.112  1.00  0.00    -0.280 N 
ATOM    289  C6   DT A  12      76.163 115.220 206.471  1.00  0.00     0.104 A 
ATOM    290  C2   DT A  12      76.144 113.721 204.595  1.00  0.00     0.331 A 
ATOM    291  O2   DT A  12      76.132 113.487 203.400  1.00  0.00    -0.246 OA
ATOM    292  N3   DT A  12      76.157 112.720 205.531  1.00  0.00    -0.275 N 
ATOM    293  H3   DT A  12      76.149 111.776 205.172  1.00  0.00     0.173 HD
ATOM    294  C4   DT A  12      76.175 112.864 206.899  1.00  0.00     0.250 A 
ATOM    295  O4   DT A  12      76.183 111.862 207.613  1.00  0.00    -0.268 OA
ATOM    296  C5   DT A  12      76.179 114.219 207.354  1.00  0.00     0.092 A 
ATOM    297  C2'  DT A  12      74.731 116.659 203.863  1.00  0.00     0.199 C 
ATOM    298  O2'  DT A  12      74.722 117.196 202.554  1.00  0.00    -0.388 OA
ATOM    299 2'HO  DT A  12      74.024 117.851 202.527  1.00  0.00     0.210 HD
ATOM    300  C3'  DT A  12      74.601 117.756 204.913  1.00  0.00     0.198 C 
ATOM    301  O3'  DT A  12      73.642 118.745 204.553  1.00  0.00    -0.279 OA
ATOM    302  P    DC A  13      72.085 118.502 204.874  1.00  0.00     0.408 P 
ATOM    303  OP1  DC A  13      71.364 119.753 204.524  1.00  0.00    -0.624 OA
ATOM    304  OP2  DC A  13      71.972 117.952 206.250  1.00  0.00    -0.624 OA
ATOM    305  O5'  DC A  13      71.650 117.375 203.834  1.00  0.00    -0.287 OA
ATOM    306  C5'  DC A  13      71.097 116.135 204.273  1.00  0.00     0.216 C 
ATOM    307  C4'  DC A  13      71.542 115.016 203.362  1.00  0.00     0.180 C 
ATOM    308  O4'  DC A  13      72.815 114.501 203.841  1.00  0.00    -0.353 OA
ATOM    309  C1'  DC A  13      72.818 113.085 203.772  1.00  0.00     0.264 C 
ATOM    310  N1   DC A  13      72.866 112.552 205.144  1.00  0.00    -0.278 N 
ATOM    311  C6   DC A  13      72.829 113.390 206.223  1.00  0.00     0.102 A 
ATOM    312  C2   DC A  13      72.946 111.167 205.329  1.00  0.00     0.352 A 
ATOM    313  O2   DC A  13      72.984 110.428 204.335  1.00  0.00    -0.244 OA
ATOM    314  N3   DC A  13      72.981 110.670 206.584  1.00  0.00    -0.177 NA
ATOM    315  C4   DC A  13      72.943 111.497 207.630  1.00  0.00     0.128 A 
ATOM    316  C5   DC A  13      72.864 112.911 207.474  1.00  0.00     0.067 A 
ATOM    317  C2'  DC A  13      71.574 112.665 202.990  1.00  0.00     0.199 C 
ATOM    318  C3'  DC A  13      70.618 113.805 203.324  1.00  0.00     0.198 C 
ENDROOT
BRANCH 318 319
ATOM    319  O3'  DC A  13      69.595 113.957 202.344  1.00  0.00    -0.279 OA
BRANCH 319 320
ATOM    320  P    DA A  14      68.180 113.220 202.547  1.00  0.00     0.408 P 
ATOM    321  OP2  DA A  14      68.277 111.864 201.949  1.00  0.00    -0.624 OA
ATOM    322  OP1  DA A  14      67.806 113.366 203.977  1.00  0.00    -0.624 OA
BRANCH 320 323
ATOM    323  O5'  DA A  14      67.168 114.081 201.665  1.00  0.00    -0.287 OA
BRANCH 323 324
ATOM    324  C5'  DA A  14      66.783 113.659 200.357  1.00  0.00     0.216 C 
BRANCH 324 325
ATOM    325  C4'  DA A  14      67.137 114.720 199.341  1.00  0.00     0.180 C 
ATOM    326  C3'  DA A  14      67.148 114.250 197.892  1.00  0.00     0.198 C 
ATOM    327  C2'  DA A  14      68.155 115.191 197.246  1.00  0.00     0.199 C 
ATOM    328  C1'  DA A  14      69.185 115.331 198.366  1.00  0.00     0.262 C 
ATOM    329  O4'  DA A  14      68.494 115.179 199.593  1.00  0.00    -0.353 OA
BRANCH 326 330
ATOM    330  O3'  DA A  14      65.857 114.348 197.296  1.00  0.00    -0.279 OA
BRANCH 330 331
ATOM    331  P    DG A  15      64.937 115.635 197.589  1.00  0.00     0.408 P 
ATOM    332  OP2  DG A  15      65.186 116.078 198.985  1.00  0.00    -0.624 OA
ATOM    333  OP1  DG A  15      65.144 116.589 196.470  1.00  0.00    -0.624 OA
BRANCH 331 334
ATOM    334  O5'  DG A  15      63.447 115.075 197.502  1.00  0.00    -0.287 OA
BRANCH 334 335
ATOM    335  C5'  DG A  15      63.163 113.833 196.860  1.00  0.00     0.216 C 
BRANCH 335 336
ATOM    336  C4'  DG A  15      62.342 114.063 195.611  1.00  0.00     0.180 C 
ATOM    337  C3'  DG A  15      62.180 112.858 194.694  1.00  0.00     0.198 C 
ATOM    338  C2'  DG A  15      61.891 113.525 193.352  1.00  0.00     0.199 C 
ATOM    339  C1'  DG A  15      62.875 114.691 193.409  1.00  0.00     0.262 C 
ATOM    340  O4'  DG A  15      63.014 115.049 194.775  1.00  0.00    -0.353 OA
BRANCH 337 341
ATOM    341  O3'  DG A  15      61.183 111.937 195.169  1.00  0.00    -0.279 OA
BRANCH 341 342
ATOM    342  P    DT A  16      61.393 110.342 195.039  1.00  0.00     0.408 P 
ATOM    343  OP2  DT A  16      62.361 109.947 196.094  1.00  0.00    -0.624 OA
ATOM    344  OP1  DT A  16      60.063 109.682 194.990  1.00  0.00    -0.624 OA
BRANCH 342 345
ATOM    345  O5'  DT A  16      62.109 110.157 193.626  1.00  0.00    -0.287 OA
BRANCH 345 346
ATOM    346  C5'  DT A  16      63.003 109.072 193.385  1.00  0.00     0.216 C 
BRANCH 346 347
ATOM    347  C4'  DT A  16      64.277 109.577 192.747  1.00  0.00     0.180 C 
ATOM    348  C3'  DT A  16      65.468 108.632 192.826  1.00  0.00     0.198 C 
ATOM    349  C2'  DT A  16      66.653 109.588 192.736  1.00  0.00     0.199 C 
ATOM    350  C1'  DT A  16      66.128 110.794 193.516  1.00  0.00     0.264 C 
ATOM    351  O4'  DT A  16      64.714 110.768 193.453  1.00  0.00    -0.353 OA
BRANCH 348 352
ATOM    352  O3'  DT A  16      65.463 107.681 191.763  1.00  0.00    -0.279 OA
BRANCH 352 353
ATOM    353  P    DT A  17      65.480 106.106 192.095  1.00  0.00     0.408 P 
ATOM    354  OP2  DT A  17      64.807 105.883 193.399  1.00  0.00    -0.624 OA
ATOM    355  OP1  DT A  17      64.982 105.403 190.885  1.00  0.00    -0.624 OA
BRANCH 353 356
ATOM    356  O5'  DT A  17      67.028 105.754 192.254  1.00  0.00    -0.287 OA
BRANCH 356 357
ATOM    357  C5'  DT A  17      67.790 105.226 191.166  1.00  0.00     0.216 C 
BRANCH 357 358
ATOM    358  C4'  DT A  17      67.963 103.731 191.321  1.00  0.00     0.180 C 
ATOM    359  C3'  DT A  17      67.844 103.207 192.749  1.00  0.00     0.198 C 
ATOM    360  C2'  DT A  17      69.286 103.234 193.243  1.00  0.00     0.199 C 
ATOM    361  C1'  DT A  17      70.038 102.844 191.974  1.00  0.00     0.264 C 
ATOM    362  O4'  DT A  17      69.304 103.369 190.885  1.00  0.00    -0.353 OA
BRANCH 359 363
ATOM    363  O3'  DT A  17      67.279 101.896 192.768  1.00  0.00    -0.279 OA
BRANCH 363 364
ATOM    364  P    DG A  18      65.975 101.596 193.662  1.00  0.00     0.408 P 
ATOM    365  OP2  DG A  18      64.908 102.546 193.256  1.00  0.00    -0.624 OA
ATOM    366  OP1  DG A  18      65.714 100.133 193.615  1.00  0.00    -0.624 OA
BRANCH 364 367
ATOM    367  O5'  DG A  18      66.435 101.963 195.143  1.00  0.00    -0.287 OA
BRANCH 367 368
ATOM    368  C5'  DG A  18      65.964 103.146 195.787  1.00  0.00     0.216 C 
BRANCH 368 369
ATOM    369  C4'  DG A  18      67.128 104.043 196.142  1.00  0.00     0.180 C 
ATOM    370  O4'  DG A  18      66.650 105.415 196.205  1.00  0.00    -0.353 OA
ATOM    371  C1'  DG A  18      66.653 105.864 197.547  1.00  0.00     0.262 C 
ATOM    372  C2'  DG A  18      66.923 104.651 198.436  1.00  0.00     0.199 C 
ATOM    373  C3'  DG A  18      67.761 103.782 197.505  1.00  0.00     0.198 C 
BRANCH 371 374
ATOM    374  N9   DG A  18      65.375 106.517 197.812  1.00  0.00    -0.293 N 
ATOM    375  C4   DG A  18      65.129 107.479 198.763  1.00  0.00     0.187 A 
ATOM    376  C5   DG A  18      63.791 107.785 198.636  1.00  0.00     0.173 A 
ATOM    377  N3   DG A  18      66.032 107.991 199.623  1.00  0.00    -0.044 NA
ATOM    378  C6   DG A  18      63.229 108.764 199.497  1.00  0.00     0.292 A 
ATOM    379  N7   DG A  18      63.206 107.032 197.625  1.00  0.00    -0.234 NA
ATOM    380  N1   DG A  18      64.178 109.278 200.373  1.00  0.00    -0.153 N 
ATOM    381  O6   DG A  18      62.065 109.176 199.542  1.00  0.00    -0.265 OA
ATOM    382  C2   DG A  18      65.495 108.900 200.418  1.00  0.00     0.703 A 
ATOM    383  H1   DG A  18      63.866 109.981 201.024  1.00  0.00     0.187 HD
ATOM    384  C8   DG A  18      64.182 106.297 197.167  1.00  0.00     0.214 A 
BRANCH 382 385
ATOM    385  N2   DG A  18      66.253 109.509 201.333  1.00  0.00    -0.233 N 
ATOM    386  H21  DG A  18      66.357 109.088 202.244  1.00  0.00     0.174 HD
ATOM    387  H22  DG A  18      66.716 110.379 201.117  1.00  0.00     0.174 HD
ENDBRANCH 382 385
ENDBRANCH 371 374
BRANCH 372 388
ATOM    388  O2'  DG A  18      67.673 105.070 199.560  1.00  0.00    -0.388 OA
ATOM    389 2'HO  DG A  18      67.047 105.416 200.198  1.00  0.00     0.210 HD
ENDBRANCH 372 388
BRANCH 373 390
ATOM    390  O3'  DG A  18      69.140 104.146 197.522  1.00  0.00    -0.279 OA
BRANCH 390 391
ATOM    391  P    DG A  19      70.230 103.123 198.117  1.00  0.00     0.408 P 
ATOM    392  OP1  DG A  19      70.554 102.152 197.041  1.00  0.00    -0.624 OA
ATOM    393  OP2  DG A  19      69.741 102.624 199.428  1.00  0.00    -0.624 OA
BRANCH 391 394
ATOM    394  O5'  DG A  19      71.521 104.027 198.358  1.00  0.00    -0.287 OA
BRANCH 394 395
ATOM    395  C5'  DG A  19      72.362 103.829 199.495  1.00  0.00     0.216 C 
BRANCH 395 396
ATOM    396  C4'  DG A  19      73.804 103.710 199.059  1.00  0.00     0.180 C 
ATOM    397  O4'  DG A  19      74.606 103.344 200.218  1.00  0.00    -0.353 OA
ATOM    398  C1'  DG A  19      75.259 102.113 199.979  1.00  0.00     0.262 C 
ATOM    399  C2'  DG A  19      74.499 101.431 198.845  1.00  0.00     0.199 C 
ATOM    400  C3'  DG A  19      74.077 102.635 198.009  1.00  0.00     0.198 C 
BRANCH 398 401
ATOM    401  N9   DG A  19      75.284 101.359 201.228  1.00  0.00    -0.293 N 
ATOM    402  C4   DG A  19      76.133 100.324 201.540  1.00  0.00     0.187 A 
ATOM    403  N3   DG A  19      77.094  99.819 200.739  1.00  0.00    -0.044 NA
ATOM    404  C5   DG A  19      75.784  99.936 202.817  1.00  0.00     0.173 A 
ATOM    405  C2   DG A  19      77.748  98.829 201.319  1.00  0.00     0.703 A 
ATOM    406  N1   DG A  19      77.481  98.367 202.582  1.00  0.00    -0.153 N 
ATOM    407  H1   DG A  19      78.039  97.606 202.934  1.00  0.00     0.187 HD
ATOM    408  C6   DG A  19      76.497  98.869 203.425  1.00  0.00     0.292 A 
ATOM    409  O6   DG A  19      76.339  98.377 204.548  1.00  0.00    -0.265 OA
ATOM    410  N7   DG A  19      74.736 100.710 203.298  1.00  0.00    -0.234 NA
ATOM    411  C8   DG A  19      74.474 101.537 202.324  1.00  0.00     0.214 A 
BRANCH 405 412
ATOM    412  N2   DG A  19      78.736  98.214 200.664  1.00  0.00    -0.233 N 
ATOM    413  H21  DG A  19      78.563  97.865 199.732  1.00  0.00     0.174 HD
ATOM    414  H22  DG A  19      79.642  98.097 201.092  1.00  0.00     0.174 HD
ENDBRANCH 405 412
ENDBRANCH 398 401
BRANCH 399 415
ATOM    415  O2'  DG A  19      75.396 100.604 198.128  1.00  0.00    -0.388 OA
ATOM    416 2'HO  DG A  19      75.425 100.946 197.234  1.00  0.00     0.210 HD
ENDBRANCH 399 415
BRANCH 400 417
ATOM    417  O3'  DG A  19      75.096 103.042 197.100  1.00  0.00    -0.279 OA
BRANCH 417 418
ATOM    418  P    DG A  20      74.695 103.720 195.696  1.00  0.00     0.408 P 
ATOM    419  OP2  DG A  20      75.766 103.429 194.710  1.00  0.00    -0.624 OA
ATOM    420  OP1  DG A  20      73.296 103.317 195.400  1.00  0.00    -0.624 OA
BRANCH 418 421
ATOM    421  O5'  DG A  20      74.707 105.283 196.003  1.00  0.00    -0.287 OA
BRANCH 421 422
ATOM    422  C5'  DG A  20      75.480 106.183 195.209  1.00  0.00     0.216 C 
BRANCH 422 423
ATOM    423  C4'  DG A  20      76.402 106.996 196.088  1.00  0.00     0.180 C 
ATOM    424  C3'  DG A  20      76.947 106.271 197.314  1.00  0.00     0.198 C 
ATOM    425  C2'  DG A  20      77.177 107.411 198.299  1.00  0.00     0.199 C 
ATOM    426  C1'  DG A  20      75.979 108.308 197.992  1.00  0.00     0.262 C 
ATOM    427  O4'  DG A  20      75.659 108.127 196.624  1.00  0.00    -0.353 OA
BRANCH 424 428
ATOM    428  O3'  DG A  20      78.147 105.562 197.018  1.00  0.00    -0.279 OA
BRANCH 428 429
ATOM    429  P    DA A  21      78.536 104.258 197.875  1.00  0.00     0.408 P 
ATOM    430  OP2  DA A  21      77.850 104.341 199.189  1.00  0.00    -0.624 OA
ATOM    431  OP1  DA A  21      78.308 103.077 197.003  1.00  0.00    -0.624 OA
BRANCH 429 432
ATOM    432  O5'  DA A  21      80.106 104.397 198.109  1.00  0.00    -0.287 OA
BRANCH 432 433
ATOM    433  C5'  DA A  21      81.040 103.640 197.337  1.00  0.00     0.216 C 
BRANCH 433 434
ATOM    434  C4'  DA A  21      82.451 104.086 197.643  1.00  0.00     0.180 C 
ATOM    435  O4'  DA A  21      82.862 105.054 196.640  1.00  0.00    -0.353 OA
ATOM    436  C1'  DA A  21      83.659 106.058 197.240  1.00  0.00     0.262 C 
ATOM    437  C2'  DA A  21      83.855 105.686 198.711  1.00  0.00     0.199 C 
ATOM    438  C3'  DA A  21      82.635 104.809 198.971  1.00  0.00     0.198 C 
BRANCH 436 439
ATOM    439  N9   DA A  21      82.997 107.347 197.051  1.00  0.00    -0.294 N 
ATOM    440  C8   DA A  21      81.795 107.762 197.568  1.00  0.00     0.214 A 
ATOM    441  N7   DA A  21      81.466 108.984 197.224  1.00  0.00    -0.236 NA
ATOM    442  C5   DA A  21      82.520 109.400 196.424  1.00  0.00     0.149 A 
ATOM    443  C6   DA A  21      82.777 110.605 195.745  1.00  0.00     0.155 A 
ATOM    444  C4   DA A  21      83.469 108.401 196.306  1.00  0.00     0.167 A 
ATOM    445  N1   DA A  21      83.920 110.695 195.034  1.00  0.00    -0.222 NA
ATOM    446  C2   DA A  21      84.746 109.641 195.012  1.00  0.00     0.237 A 
ATOM    447  N3   DA A  21      84.617 108.457 195.608  1.00  0.00    -0.222 NA
BRANCH 443 448
ATOM    448  N6   DA A  21      81.957 111.655 195.766  1.00  0.00    -0.382 N 
ATOM    449  H61  DA A  21      81.417 111.889 194.945  1.00  0.00     0.157 HD
ATOM    450  H62  DA A  21      81.877 112.211 196.605  1.00  0.00     0.157 HD
ENDBRANCH 443 448
ENDBRANCH 436 439
BRANCH 437 451
ATOM    451  O2'  DA A  21      85.052 104.942 198.832  1.00  0.00    -0.388 OA
ATOM    452 2'HO  DA A  21      84.917 104.327 199.554  1.00  0.00     0.210 HD
ENDBRANCH 437 451
BRANCH 438 453
ATOM    453  O3'  DA A  21      82.848 103.890 200.039  1.00  0.00    -0.279 OA
BRANCH 453 454
ATOM    454  P    DG A  22      82.221 104.189 201.492  1.00  0.00     0.408 P 
ATOM    455  OP2  DG A  22      81.017 105.043 201.322  1.00  0.00    -0.624 OA
ATOM    456  OP1  DG A  22      82.102 102.886 202.192  1.00  0.00    -0.624 OA
BRANCH 454 457
ATOM    457  O5'  DG A  22      83.350 105.042 202.229  1.00  0.00    -0.287 OA
BRANCH 457 458
ATOM    458  C5'  DG A  22      84.223 104.444 203.187  1.00  0.00     0.216 C 
BRANCH 458 459
ATOM    459  C4'  DG A  22      84.378 105.353 204.383  1.00  0.00     0.180 C 
ATOM    460  O4'  DG A  22      84.628 106.709 203.911  1.00  0.00    -0.353 OA
ATOM    461  C1'  DG A  22      83.830 107.623 204.642  1.00  0.00     0.262 C 
ATOM    462  C2'  DG A  22      83.321 106.869 205.868  1.00  0.00     0.199 C 
ATOM    463  C3'  DG A  22      83.156 105.472 205.286  1.00  0.00     0.198 C 
BRANCH 461 464
ATOM    464  N9   DG A  22      82.767 108.112 203.769  1.00  0.00    -0.293 N 
ATOM    465  C8   DG A  22      82.748 108.090 202.396  1.00  0.00     0.214 A 
ATOM    466  N7   DG A  22      81.657 108.593 201.888  1.00  0.00    -0.234 NA
ATOM    467  C5   DG A  22      80.907 108.972 202.994  1.00  0.00     0.173 A 
ATOM    468  C4   DG A  22      81.579 108.682 204.163  1.00  0.00     0.187 A 
ATOM    469  C6   DG A  22      79.628 109.580 203.074  1.00  0.00     0.292 A 
ATOM    470  N3   DG A  22      81.185 108.898 205.436  1.00  0.00    -0.044 NA
ATOM    471  C2   DG A  22      79.993 109.464 205.493  1.00  0.00     0.703 A 
ATOM    472  N1   DG A  22      79.244 109.793 204.393  1.00  0.00    -0.153 N 
ATOM    473  H1   DG A  22      78.346 110.224 204.548  1.00  0.00     0.187 HD
ATOM    474  O6   DG A  22      78.872 109.912 202.153  1.00  0.00    -0.265 OA
BRANCH 471 475
ATOM    475  N2   DG A  22      79.448 109.750 206.679  1.00  0.00    -0.233 N 
ATOM    476  H21  DG A  22      80.050 109.912 207.474  1.00  0.00     0.174 HD
ATOM    477  H22  DG A  22      78.445 109.806 206.779  1.00  0.00     0.174 HD
ENDBRANCH 471 475
ENDBRANCH 461 464
BRANCH 462 478
ATOM    478  O2'  DG A  22      84.324 106.893 206.866  1.00  0.00    -0.388 OA
ATOM    479 2'HO  DG A  22      84.764 106.043 206.832  1.00  0.00     0.210 HD
ENDBRANCH 462 478
BRANCH 463 480
ATOM    480  O3'  DG A  22      83.139 104.461 206.291  1.00  0.00    -0.279 OA
BRANCH 480 481
ATOM    481  P    DA A  23      81.987 103.338 206.277  1.00  0.00     0.408 P 
ATOM    482  OP2  DA A  23      80.674 104.006 206.098  1.00  0.00    -0.624 OA
ATOM    483  OP1  DA A  23      82.409 102.284 205.319  1.00  0.00    -0.624 OA
BRANCH 481 484
ATOM    484  O5'  DA A  23      82.031 102.718 207.744  1.00  0.00    -0.287 OA
BRANCH 484 485
ATOM    485  C5'  DA A  23      80.871 102.704 208.573  1.00  0.00     0.216 C 
BRANCH 485 486
ATOM    486  C4'  DA A  23      80.239 101.331 208.565  1.00  0.00     0.180 C 
ATOM    487  O4'  DA A  23      79.057 101.357 207.716  1.00  0.00    -0.353 OA
ATOM    488  C1'  DA A  23      78.996 100.169 206.946  1.00  0.00     0.262 C 
ATOM    489  C2'  DA A  23      80.049  99.219 207.513  1.00  0.00     0.199 C 
ATOM    490  C3'  DA A  23      81.098 100.214 207.989  1.00  0.00     0.198 C 
BRANCH 488 491
ATOM    491  N9   DA A  23      79.212 100.517 205.541  1.00  0.00    -0.294 N 
ATOM    492  C8   DA A  23      80.066  99.915 204.651  1.00  0.00     0.214 A 
ATOM    493  N7   DA A  23      80.048 100.451 203.454  1.00  0.00    -0.236 NA
ATOM    494  C5   DA A  23      79.115 101.474 203.563  1.00  0.00     0.149 A 
ATOM    495  C6   DA A  23      78.637 102.419 202.640  1.00  0.00     0.155 A 
ATOM    496  C4   DA A  23      78.591 101.525 204.843  1.00  0.00     0.167 A 
ATOM    497  N1   DA A  23      77.707 103.300 203.066  1.00  0.00    -0.222 NA
ATOM    498  C2   DA A  23      77.293 103.228 204.338  1.00  0.00     0.237 A 
ATOM    499  N3   DA A  23      77.668 102.387 205.300  1.00  0.00    -0.222 NA
BRANCH 495 500
ATOM    500  N6   DA A  23      79.050 102.491 201.374  1.00  0.00    -0.382 N 
ATOM    501  H62  DA A  23      79.849 101.952 201.068  1.00  0.00     0.157 HD
ATOM    502  H61  DA A  23      78.564 103.090 200.723  1.00  0.00     0.157 HD
ENDBRANCH 495 500
ENDBRANCH 488 491
BRANCH 489 503
ATOM    503  O2'  DA A  23      79.483  98.509 208.599  1.00  0.00    -0.388 OA
ATOM    504 2'HO  DA A  23      80.089  98.603 209.335  1.00  0.00     0.210 HD
ENDBRANCH 489 503
BRANCH 490 505
ATOM    505  O3'  DA A  23      81.976  99.664 208.966  1.00  0.00    -0.279 OA
BRANCH 505 506
ATOM    506  P    DG A  24      81.611  99.784 210.528  1.00  0.00     0.408 P 
ATOM    507  OP1  DG A  24      82.154  98.578 211.202  1.00  0.00    -0.624 OA
ATOM    508  OP2  DG A  24      80.167 100.109 210.657  1.00  0.00    -0.624 OA
BRANCH 506 509
ATOM    509  O5'  DG A  24      82.449 101.047 211.021  1.00  0.00    -0.287 OA
BRANCH 509 510
ATOM    510  C5'  DG A  24      83.709 100.885 211.672  1.00  0.00     0.216 C 
BRANCH 510 511
ATOM    511  C4'  DG A  24      84.641 102.009 211.287  1.00  0.00     0.180 C 
ATOM    512  O4'  DG A  24      83.883 103.036 210.596  1.00  0.00    -0.353 OA
ATOM    513  C1'  DG A  24      84.387 104.315 210.940  1.00  0.00     0.262 C 
ATOM    514  C2'  DG A  24      85.585 104.116 211.870  1.00  0.00     0.199 C 
ATOM    515  C3'  DG A  24      85.292 102.737 212.453  1.00  0.00     0.198 C 
BRANCH 513 516
ATOM    516  N9   DG A  24      83.304 105.089 211.537  1.00  0.00    -0.293 N 
ATOM    517  C4   DG A  24      82.293 105.732 210.865  1.00  0.00     0.187 A 
ATOM    518  N3   DG A  24      82.126 105.766 209.528  1.00  0.00    -0.044 NA
ATOM    519  C5   DG A  24      81.514 106.313 211.844  1.00  0.00     0.173 A 
ATOM    520  C2   DG A  24      81.062 106.465 209.181  1.00  0.00     0.703 A 
ATOM    521  N1   DG A  24      80.224 107.082 210.074  1.00  0.00    -0.153 N 
ATOM    522  H1   DG A  24      79.438 107.593 209.704  1.00  0.00     0.187 HD
ATOM    523  C6   DG A  24      80.373 107.059 211.456  1.00  0.00     0.292 A 
ATOM    524  O6   DG A  24      79.556 107.650 212.170  1.00  0.00    -0.265 OA
ATOM    525  N7   DG A  24      82.028 106.045 213.107  1.00  0.00    -0.234 NA
ATOM    526  C8   DG A  24      83.088 105.321 212.874  1.00  0.00     0.214 A 
BRANCH 520 527
ATOM    527  N2   DG A  24      80.749 106.601 207.890  1.00  0.00    -0.233 N 
ATOM    528  H21  DG A  24      79.934 107.138 207.635  1.00  0.00     0.174 HD
ATOM    529  H22  DG A  24      81.315 106.166 207.175  1.00  0.00     0.174 HD
ENDBRANCH 520 527
ENDBRANCH 513 516
BRANCH 514 530
ATOM    530  O2'  DG A  24      86.766 104.098 211.090  1.00  0.00    -0.388 OA
ATOM    531 2'HO  DG A  24      86.711 103.325 210.528  1.00  0.00     0.210 HD
ENDBRANCH 514 530
BRANCH 515 532
ATOM    532  O3'  DG A  24      86.473 102.069 212.886  1.00  0.00    -0.279 OA
BRANCH 532 533
ATOM    533  P    DC A  25      87.179 100.992 211.924  1.00  0.00     0.408 P 
ATOM    534  OP2  DC A  25      87.288  99.709 212.664  1.00  0.00    -0.624 OA
ATOM    535  OP1  DC A  25      86.460 101.031 210.625  1.00  0.00    -0.624 OA
BRANCH 533 536
ATOM    536  O5'  DC A  25      88.646 101.575 211.708  1.00  0.00    -0.287 OA
BRANCH 536 537
ATOM    537  C5'  DC A  25      89.694 100.759 211.184  1.00  0.00     0.216 C 
BRANCH 537 538
ATOM    538  C4'  DC A  25      90.780 101.626 210.588  1.00  0.00     0.180 C 
ATOM    539  O4'  DC A  25      92.053 101.233 211.166  1.00  0.00    -0.353 OA
ATOM    540  C1'  DC A  25      93.068 101.298 210.181  1.00  0.00     0.264 C 
ATOM    541  C2'  DC A  25      92.447 101.847 208.895  1.00  0.00     0.199 C 
ATOM    542  C3'  DC A  25      90.975 101.492 209.083  1.00  0.00     0.198 C 
ATOM    543  O2'  DC A  25      92.631 103.249 208.866  1.00  0.00    -0.388 OA
ATOM    544  O3'  DC A  25      90.125 102.380 208.361  1.00  0.00    -0.279 OA
ATOM    545  P    DG A  26      88.606 101.959 208.037  1.00  0.00     0.408 P 
ATOM    546  OP1  DG A  26      87.734 103.039 208.566  1.00  0.00    -0.624 OA
ATOM    547  OP2  DG A  26      88.379 100.558 208.468  1.00  0.00    -0.624 OA
ATOM    548  O5'  DG A  26      88.521 102.003 206.446  1.00  0.00    -0.287 OA
ATOM    549  C5'  DG A  26      89.272 102.953 205.691  1.00  0.00     0.216 C 
ATOM    550  C4'  DG A  26      90.044 102.253 204.596  1.00  0.00     0.180 C 
ATOM    551  O4'  DG A  26      91.105 101.469 205.207  1.00  0.00    -0.353 OA
ATOM    552  C3'  DG A  26      89.239 101.256 203.770  1.00  0.00     0.198 C 
ATOM    553  C1'  DG A  26      91.190 100.202 204.582  1.00  0.00     0.262 C 
ATOM    554  N9   DG A  26      90.814  99.185 205.562  1.00  0.00    -0.293 N 
ATOM    555  C2'  DG A  26      90.292 100.239 203.347  1.00  0.00     0.199 C 
ATOM    556  C8   DG A  26      89.589  99.020 206.159  1.00  0.00     0.214 A 
ATOM    557  C4   DG A  26      91.629  98.203 206.072  1.00  0.00     0.187 A 
ATOM    558  N7   DG A  26      89.557  98.025 207.002  1.00  0.00    -0.234 NA
ATOM    559  C5   DG A  26      90.841  97.499 206.959  1.00  0.00     0.173 A 
ATOM    560  C6   DG A  26      91.413  96.408 207.662  1.00  0.00     0.292 A 
ATOM    561  N1   DG A  26      92.745  96.216 207.315  1.00  0.00    -0.153 N 
ATOM    562  O6   DG A  26      90.884  95.663 208.494  1.00  0.00    -0.265 OA
ATOM    563  C2   DG A  26      93.440  96.978 206.412  1.00  0.00     0.703 A 
ATOM    564  H1   DG A  26      93.235  95.458 207.763  1.00  0.00     0.187 HD
ATOM    565  N2   DG A  26      94.715  96.634 206.212  1.00  0.00    -0.233 N 
ATOM    566  N3   DG A  26      92.925  97.999 205.752  1.00  0.00    -0.044 NA
ATOM    567  H21  DG A  26      95.269  97.166 205.553  1.00  0.00     0.174 HD
ATOM    568  H22  DG A  26      95.124  95.853 206.704  1.00  0.00     0.174 HD
ATOM    569  O2'  DG A  26      91.048 100.715 202.250  1.00  0.00    -0.388 OA
ATOM    570 2'HO  DG A  26      90.474 101.302 201.754  1.00  0.00     0.210 HD
ATOM    571  O3'  DG A  26      88.612 101.882 202.654  1.00  0.00    -0.279 OA
ATOM    572  P    DC A  27      87.126 101.443 202.219  1.00  0.00     0.408 P 
ATOM    573  O5'  DC A  27      87.342 100.068 201.439  1.00  0.00    -0.287 OA
ATOM    574  OP1  DC A  27      86.629 102.456 201.255  1.00  0.00    -0.624 OA
ATOM    575  OP2  DC A  27      86.342 101.153 203.447  1.00  0.00    -0.624 OA
ATOM    576  C5'  DC A  27      87.560 100.044 200.028  1.00  0.00     0.216 C 
ATOM    577  C4'  DC A  27      88.624  99.027 199.679  1.00  0.00     0.180 C 
ATOM    578  O4'  DC A  27      89.397  98.709 200.868  1.00  0.00    -0.353 OA
ATOM    579  C3'  DC A  27      88.105  97.678 199.202  1.00  0.00     0.198 C 
ATOM    580  C1'  DC A  27      89.737  97.332 200.864  1.00  0.00     0.264 C 
ATOM    581  N1   DC A  27      89.118  96.691 202.036  1.00  0.00    -0.278 N 
ATOM    582  C2'  DC A  27      89.265  96.750 199.533  1.00  0.00     0.199 C 
ATOM    583  C2   DC A  27      89.467  95.372 202.348  1.00  0.00     0.352 A 
ATOM    584  C6   DC A  27      88.217  97.366 202.813  1.00  0.00     0.102 A 
ATOM    585  N3   DC A  27      88.907  94.777 203.423  1.00  0.00    -0.177 NA
ATOM    586  O2   DC A  27      90.282  94.779 201.626  1.00  0.00    -0.244 OA
ATOM    587  C4   DC A  27      88.033  95.445 204.176  1.00  0.00     0.128 A 
ATOM    588  N4   DC A  27      87.511  94.816 205.227  1.00  0.00    -0.384 N 
ATOM    589  C5   DC A  27      87.655  96.788 203.882  1.00  0.00     0.067 A 
ATOM    590  H42  DC A  27      87.787  93.865 205.426  1.00  0.00     0.157 HD
ATOM    591  H41  DC A  27      86.845  95.286 205.824  1.00  0.00     0.157 HD
ATOM    592  O2'  DC A  27      90.310  96.875 198.586  1.00  0.00    -0.388 OA
ATOM    593 2'HO  DC A  27      89.951  97.353 197.839  1.00  0.00     0.210 HD
ATOM    594  O3'  DC A  27      87.795  97.692 197.811  1.00  0.00    -0.279 OA
ATOM    595  P    DT A  28      86.733  96.640 197.220  1.00  0.00     0.408 P 
ATOM    596  OP1  DT A  28      86.491  97.002 195.800  1.00  0.00    -0.624 OA
ATOM    597  OP2  DT A  28      85.587  96.548 198.160  1.00  0.00    -0.624 OA
ATOM    598  O5'  DT A  28      87.512  95.249 197.250  1.00  0.00    -0.287 OA
ATOM    599  C5'  DT A  28      88.725  95.071 196.521  1.00  0.00     0.216 C 
ATOM    600  C4'  DT A  28      89.239  93.662 196.699  1.00  0.00     0.180 C 
ATOM    601  O4'  DT A  28      89.698  93.494 198.068  1.00  0.00    -0.353 OA
ATOM    602  C3'  DT A  28      88.209  92.556 196.513  1.00  0.00     0.198 C 
ATOM    603  C1'  DT A  28      89.383  92.189 198.522  1.00  0.00     0.264 C 
ATOM    604  C2'  DT A  28      88.806  91.420 197.334  1.00  0.00     0.199 C 
ATOM    605  N1   DT A  28      88.456  92.300 199.657  1.00  0.00    -0.280 N 
ATOM    606  O2'  DT A  28      89.869  90.792 196.642  1.00  0.00    -0.388 OA
ATOM    607 2'HO  DT A  28      89.867  91.144 195.751  1.00  0.00     0.210 HD
ATOM    608  C2   DT A  28      88.410  91.249 200.555  1.00  0.00     0.331 A 
ATOM    609  C6   DT A  28      87.659  93.411 199.824  1.00  0.00     0.104 A 
ATOM    610  N3   DT A  28      87.528  91.413 201.591  1.00  0.00    -0.275 N 
ATOM    611  O2   DT A  28      89.096  90.251 200.443  1.00  0.00    -0.246 OA
ATOM    612  C4   DT A  28      86.707  92.493 201.820  1.00  0.00     0.250 A 
ATOM    613  H3   DT A  28      87.480  90.654 202.256  1.00  0.00     0.173 HD
ATOM    614  O4   DT A  28      85.971  92.495 202.806  1.00  0.00    -0.268 OA
ATOM    615  C5   DT A  28      86.812  93.535 200.849  1.00  0.00     0.092 A 
ATOM    616  O3'  DT A  28      88.043  92.210 195.141  1.00  0.00    -0.279 OA
ATOM    617  P    DT A  29      86.709  91.448 194.666  1.00  0.00     0.408 P 
ATOM    618  OP1  DT A  29      86.764  91.334 193.186  1.00  0.00    -0.624 OA
ATOM    619  OP2  DT A  29      85.539  92.102 195.308  1.00  0.00    -0.624 OA
ATOM    620  O5'  DT A  29      86.856  89.985 195.284  1.00  0.00    -0.287 OA
ATOM    621  C5'  DT A  29      87.987  89.170 194.978  1.00  0.00     0.216 C 
ATOM    622  C4'  DT A  29      87.861  87.826 195.657  1.00  0.00     0.180 C 
ATOM    623  C3'  DT A  29      86.483  87.185 195.607  1.00  0.00     0.198 C 
ATOM    624  O4'  DT A  29      88.118  87.979 197.079  1.00  0.00    -0.353 OA
ATOM    625  O3'  DT A  29      86.253  86.516 194.370  1.00  0.00    -0.279 OA
ATOM    626  C2'  DT A  29      86.537  86.228 196.791  1.00  0.00     0.199 C 
ATOM    627  P    DC A  30      84.749  86.327 193.831  1.00  0.00     0.408 P 
ATOM    628  OP1  DC A  30      84.835  85.744 192.469  1.00  0.00    -0.624 OA
ATOM    629  O5'  DC A  30      84.129  85.227 194.803  1.00  0.00    -0.287 OA
ATOM    630  OP2  DC A  30      84.009  87.597 194.040  1.00  0.00    -0.624 OA
ATOM    631  C5'  DC A  30      84.765  83.965 194.987  1.00  0.00     0.216 C 
ATOM    632  C4'  DC A  30      84.141  83.230 196.149  1.00  0.00     0.180 C 
ATOM    633  O4'  DC A  30      84.447  83.935 197.381  1.00  0.00    -0.353 OA
ATOM    634  C3'  DC A  30      82.621  83.160 196.140  1.00  0.00     0.198 C 
ATOM    635  C1'  DC A  30      83.357  83.814 198.282  1.00  0.00     0.264 C 
ATOM    636  C2'  DC A  30      82.302  82.933 197.611  1.00  0.00     0.199 C 
ATOM    637  N1   DC A  30      82.869  85.165 198.611  1.00  0.00    -0.278 N 
ATOM    638  O2'  DC A  30      82.533  81.587 197.985  1.00  0.00    -0.388 OA
ATOM    639 2'HO  DC A  30      82.517  81.070 197.180  1.00  0.00     0.210 HD
ATOM    640  C2   DC A  30      82.183  85.355 199.812  1.00  0.00     0.352 A 
ATOM    641  C6   DC A  30      83.078  86.215 197.762  1.00  0.00     0.102 A 
ATOM    642  N3   DC A  30      81.727  86.589 200.125  1.00  0.00    -0.177 NA
ATOM    643  O2   DC A  30      82.007  84.387 200.564  1.00  0.00    -0.244 OA
ATOM    644  C4   DC A  30      81.939  87.608 199.293  1.00  0.00     0.128 A 
ATOM    645  N4   DC A  30      81.474  88.805 199.647  1.00  0.00    -0.384 N 
ATOM    646  C5   DC A  30      82.637  87.444 198.062  1.00  0.00     0.067 A 
ATOM    647  H42  DC A  30      80.981  88.911 200.522  1.00  0.00     0.157 HD
ATOM    648  H41  DC A  30      81.613  89.605 199.045  1.00  0.00     0.157 HD
ATOM    649  O3'  DC A  30      82.144  82.109 195.305  1.00  0.00    -0.279 OA
ATOM    650  P    DA A  31      80.682  82.217 194.643  1.00  0.00     0.408 P 
ATOM    651  OP1  DA A  31      80.566  81.123 193.646  1.00  0.00    -0.624 OA
ATOM    652  O5'  DA A  31      79.690  81.899 195.848  1.00  0.00    -0.287 OA
ATOM    653  OP2  DA A  31      80.460  83.623 194.217  1.00  0.00    -0.624 OA
ATOM    654  C5'  DA A  31      79.735  80.644 196.524  1.00  0.00     0.216 C 
ATOM    655  C4'  DA A  31      78.695  80.603 197.619  1.00  0.00     0.180 C 
ATOM    656  O4'  DA A  31      79.130  81.444 198.722  1.00  0.00    -0.353 OA
ATOM    657  C3'  DA A  31      77.327  81.156 197.251  1.00  0.00     0.198 C 
ATOM    658  C1'  DA A  31      78.007  82.083 199.306  1.00  0.00     0.262 C 
ATOM    659  N9   DA A  31      78.168  83.529 199.157  1.00  0.00    -0.294 N 
ATOM    660  C2'  DA A  31      76.758  81.536 198.612  1.00  0.00     0.199 C 
ATOM    661  C4   DA A  31      77.615  84.494 199.964  1.00  0.00     0.167 A 
ATOM    662  C8   DA A  31      78.883  84.205 198.201  1.00  0.00     0.214 A 
ATOM    663  C5   DA A  31      78.031  85.705 199.442  1.00  0.00     0.149 A 
ATOM    664  N3   DA A  31      76.829  84.307 201.038  1.00  0.00    -0.222 NA
ATOM    665  N7   DA A  31      78.835  85.509 198.327  1.00  0.00    -0.236 NA
ATOM    666  C6   DA A  31      77.590  86.868 200.098  1.00  0.00     0.155 A 
ATOM    667  N1   DA A  31      76.797  86.716 201.181  1.00  0.00    -0.222 NA
ATOM    668  C2   DA A  31      76.476  85.475 201.570  1.00  0.00     0.237 A 
ATOM    669  O2'  DT A  29      87.297  85.074 196.481  1.00  0.00    -0.388 OA
ATOM    670  C1'  DT A  29      87.312  87.066 197.808  1.00  0.00     0.264 C 
ATOM    671 2'HO  DT A  29      87.417  85.070 195.530  1.00  0.00     0.210 HD
ATOM    672  N1   DT A  29      86.448  87.830 198.720  1.00  0.00    -0.280 N 
ATOM    673  C2   DT A  29      86.018  87.206 199.877  1.00  0.00     0.331 A 
ATOM    674  C6   DT A  29      86.077  89.125 198.434  1.00  0.00     0.104 A 
ATOM    675  O2   DT A  29      86.324  86.064 200.167  1.00  0.00    -0.246 OA
ATOM    676  N3   DT A  29      85.213  87.969 200.683  1.00  0.00    -0.275 N 
ATOM    677  C4   DT A  29      84.806  89.263 200.460  1.00  0.00     0.250 A 
ATOM    678  H3   DT A  29      84.885  87.531 201.531  1.00  0.00     0.173 HD
ATOM    679  O4   DT A  29      84.077  89.817 201.282  1.00  0.00    -0.268 OA
ATOM    680  C5   DT A  29      85.292  89.840 199.246  1.00  0.00     0.092 A 
ATOM    681 2'HO  DC A  25      91.821 103.623 208.517  1.00  0.00     0.210 HD
BRANCH 540 682
ATOM    682  N1   DC A  25      93.654  99.956 210.032  1.00  0.00    -0.278 N 
ATOM    683  C2   DC A  25      94.882  99.826 209.377  1.00  0.00     0.352 A 
ATOM    684  N3   DC A  25      95.426  98.598 209.232  1.00  0.00    -0.177 NA
ATOM    685  O2   DC A  25      95.445 100.842 208.945  1.00  0.00    -0.244 OA
ATOM    686  C4   DC A  25      94.793  97.527 209.714  1.00  0.00     0.128 A 
ATOM    687  N4   DC A  25      95.372  96.337 209.548  1.00  0.00    -0.384 N 
ATOM    688  C5   DC A  25      93.541  97.629 210.386  1.00  0.00     0.067 A 
ATOM    689  H42  DC A  25      96.265  96.274 209.080  1.00  0.00     0.157 HD
ATOM    690  H41  DC A  25      94.928  95.501 209.899  1.00  0.00     0.157 HD
ATOM    691  C6   DC A  25      93.014  98.853 210.522  1.00  0.00     0.102 A 
ENDBRANCH 540 682
BRANCH 666 692
ATOM    692  N6   DA A  31      77.912  88.102 199.713  1.00  0.00    -0.382 N 
ATOM    693  H62  DA A  31      78.345  88.250 198.810  1.00  0.00     0.157 HD
ATOM    694  H61  DA A  31      77.724  88.885 200.320  1.00  0.00     0.157 HD
ENDBRANCH 666 692
BRANCH 660 695
ATOM    695  O2'  DA A  31      76.313  80.393 199.318  1.00  0.00    -0.388 OA
ATOM    696 2'HO  DA A  31      75.433  80.196 198.995  1.00  0.00     0.210 HD
ENDBRANCH 660 695
BRANCH 657 697
ATOM    697  O3'  DA A  31      76.525  80.192 196.575  1.00  0.00    -0.279 OA
BRANCH 697 698
ATOM    698  P    DA A  32      75.297  80.678 195.657  1.00  0.00     0.408 P 
ATOM    699  OP2  DA A  32      75.800  81.696 194.701  1.00  0.00    -0.624 OA
ATOM    700  OP1  DA A  32      74.624  79.458 195.142  1.00  0.00    -0.624 OA
BRANCH 698 701
ATOM    701  O5'  DA A  32      74.309  81.396 196.681  1.00  0.00    -0.287 OA
ATOM    702  C5'  DA A  32      73.679  80.659 197.728  1.00  0.00     0.216 C 
ATOM    703  C4'  DA A  32      73.003  81.600 198.701  1.00  0.00     0.180 C 
ATOM    704  C3'  DA A  32      71.844  82.410 198.146  1.00  0.00     0.198 C 
ATOM    705  O4'  DA A  32      73.932  82.624 199.126  1.00  0.00    -0.353 OA
ATOM    706  O3'  DA A  32      70.646  81.639 198.093  1.00  0.00    -0.279 OA
ATOM    707  C2'  DA A  32      71.743  83.573 199.134  1.00  0.00     0.199 C 
ATOM    708  P    DT A  33      69.551  81.939 196.954  1.00  0.00     0.408 P 
ATOM    709  OP1  DT A  33      68.287  81.282 197.372  1.00  0.00    -0.624 OA
ATOM    710  OP2  DT A  33      70.150  81.608 195.636  1.00  0.00    -0.624 OA
ATOM    711  O5'  DT A  33      69.342  83.517 197.026  1.00  0.00    -0.287 OA
ATOM    712  C5'  DT A  33      68.597  84.112 198.087  1.00  0.00     0.216 C 
ATOM    713  C4'  DT A  33      68.456  85.598 197.854  1.00  0.00     0.180 C 
ATOM    714  O4'  DT A  33      69.738  86.239 198.071  1.00  0.00    -0.353 OA
ATOM    715  C3'  DT A  33      68.076  86.003 196.439  1.00  0.00     0.198 C 
ATOM    716  C1'  DT A  33      69.862  87.356 197.209  1.00  0.00     0.264 C 
ATOM    717  N1   DT A  33      71.099  87.202 196.430  1.00  0.00    -0.280 N 
ATOM    718  C2'  DT A  33      68.596  87.434 196.350  1.00  0.00     0.199 C 
ATOM    719  C2   DT A  33      71.932  88.301 196.319  1.00  0.00     0.331 A 
ATOM    720  C6   DT A  33      71.421  86.006 195.831  1.00  0.00     0.104 A 
ATOM    721  N3   DT A  33      73.065  88.097 195.574  1.00  0.00    -0.275 N 
ATOM    722  O2   DT A  33      71.686  89.375 196.839  1.00  0.00    -0.246 OA
ATOM    723  H3   DT A  33      73.681  88.889 195.469  1.00  0.00     0.173 HD
ATOM    724  C4   DT A  33      73.446  86.933 194.949  1.00  0.00     0.250 A 
ATOM    725  C5   DT A  33      72.537  85.842 195.115  1.00  0.00     0.092 A 
ATOM    726  O4   DT A  33      74.501  86.906 194.316  1.00  0.00    -0.268 OA
ATOM    727  O2'  DT A  33      67.697  88.341 196.959  1.00  0.00    -0.388 OA
ATOM    728 2'HO  DT A  33      66.820  87.968 196.875  1.00  0.00     0.210 HD
ATOM    729  O3'  DT A  33      66.669  85.918 196.235  1.00  0.00    -0.279 OA
ATOM    730  P    DG A  34      66.096  85.406 194.823  1.00  0.00     0.408 P 
ATOM    731  OP2  DG A  34      66.711  84.088 194.520  1.00  0.00    -0.624 OA
ATOM    732  OP1  DG A  34      64.617  85.532 194.870  1.00  0.00    -0.624 OA
ATOM    733  O5'  DG A  34      66.655  86.471 193.780  1.00  0.00    -0.287 OA
ATOM    734  C5'  DG A  34      66.708  86.178 192.385  1.00  0.00     0.216 C 
ATOM    735  C4'  DG A  34      66.802  87.459 191.590  1.00  0.00     0.180 C 
ATOM    736  O4'  DG A  34      65.570  88.209 191.770  1.00  0.00    -0.353 OA
ATOM    737  C3'  DG A  34      67.907  88.416 192.022  1.00  0.00     0.198 C 
ATOM    738  C1'  DG A  34      65.860  89.590 191.878  1.00  0.00     0.262 C 
ATOM    739  N9   DG A  34      65.431  90.048 193.195  1.00  0.00    -0.293 N 
ATOM    740  C2'  DG A  34      67.355  89.777 191.614  1.00  0.00     0.199 C 
ATOM    741  C8   DG A  34      65.324  89.300 194.342  1.00  0.00     0.214 A 
ATOM    742  C4   DG A  34      65.048  91.324 193.529  1.00  0.00     0.187 A 
ATOM    743  N7   DG A  34      64.904  89.987 195.368  1.00  0.00    -0.234 NA
ATOM    744  C5   DG A  34      64.724  91.271 194.868  1.00  0.00     0.173 A 
ATOM    745  C6   DG A  34      64.281  92.457 195.510  1.00  0.00     0.292 A 
ATOM    746  N1   DG A  34      64.248  93.532 194.629  1.00  0.00    -0.153 N 
ATOM    747  O6   DG A  34      63.946  92.620 196.689  1.00  0.00    -0.265 OA
ATOM    748  H1   DG A  34      63.944  94.418 194.998  1.00  0.00     0.187 HD
ATOM    749  C2   DG A  34      64.595  93.477 193.305  1.00  0.00     0.703 A 
ATOM    750  N2   DG A  34      64.498  94.622 192.623  1.00  0.00    -0.233 N 
ATOM    751  N3   DG A  34      65.008  92.383 192.694  1.00  0.00    -0.044 NA
ATOM    752  H22  DG A  34      64.183  95.465 193.078  1.00  0.00     0.174 HD
ATOM    753  H21  DG A  34      64.744  94.631 191.644  1.00  0.00     0.174 HD
ATOM    754  O2'  DG A  34      67.544  90.009 190.230  1.00  0.00    -0.388 OA
ATOM    755 2'HO  DG A  34      68.247  89.423 189.948  1.00  0.00     0.210 HD
ATOM    756  O3'  DG A  34      69.137  88.112 191.365  1.00  0.00    -0.279 OA
ATOM    757  P    DG A  35      70.535  88.478 192.072  1.00  0.00     0.408 P 
ATOM    758  OP2  DG A  35      70.537  87.903 193.442  1.00  0.00    -0.624 OA
ATOM    759  O5'  DG A  35      70.510  90.067 192.192  1.00  0.00    -0.287 OA
ATOM    760  OP1  DG A  35      71.614  88.105 191.122  1.00  0.00    -0.624 OA
ATOM    761  C5'  DG A  35      70.503  90.895 191.028  1.00  0.00     0.216 C 
ATOM    762  C4'  DG A  35      70.539  92.353 191.424  1.00  0.00     0.180 C 
ATOM    763  C3'  DG A  35      71.546  92.706 192.513  1.00  0.00     0.198 C 
ATOM    764  O4'  DG A  35      69.236  92.712 191.963  1.00  0.00    -0.353 OA
ATOM    765  C2'  DG A  35      70.864  93.849 193.260  1.00  0.00     0.199 C 
ATOM    766  O3'  DG A  35      72.796  93.106 191.953  1.00  0.00    -0.279 OA
ATOM    767  C1'  DG A  35      69.397  93.434 193.168  1.00  0.00     0.262 C 
ATOM    768  O2'  DG A  35      71.035  95.077 192.578  1.00  0.00    -0.388 OA
ATOM    769  N9   DG A  35      68.949  92.589 194.271  1.00  0.00    -0.293 N 
ATOM    770  C8   DG A  35      69.287  91.278 194.502  1.00  0.00     0.214 A 
ATOM    771  C4   DG A  35      68.100  92.953 195.288  1.00  0.00     0.187 A 
ATOM    772  N7   DG A  35      68.728  90.782 195.571  1.00  0.00    -0.234 NA
ATOM    773  C5   DG A  35      67.973  91.831 196.079  1.00  0.00     0.173 A 
ATOM    774  C6   DG A  35      67.143  91.896 197.229  1.00  0.00     0.292 A 
ATOM    775  N1   DG A  35      66.568  93.152 197.373  1.00  0.00    -0.153 N 
ATOM    776  O6   DG A  35      66.898  91.011 198.056  1.00  0.00    -0.265 OA
ATOM    777  C2   DG A  35      66.761  94.209 196.522  1.00  0.00     0.703 A 
ATOM    778  H1   DG A  35      65.962  93.288 198.166  1.00  0.00     0.187 HD
ATOM    779  N2   DG A  35      66.118  95.338 196.831  1.00  0.00    -0.233 N 
ATOM    780  N3   DG A  35      67.527  94.165 195.448  1.00  0.00    -0.044 NA
ATOM    781  H22  DG A  35      65.537  95.385 197.655  1.00  0.00     0.174 HD
ATOM    782  H21  DG A  35      66.228  96.147 196.236  1.00  0.00     0.174 HD
ATOM    783 2'HO  DG A  35      71.565  94.892 191.802  1.00  0.00     0.210 HD
ATOM    784  P    DC A  36      74.144  92.971 192.822  1.00  0.00     0.408 P 
ATOM    785  O5'  DC A  36      74.479  94.469 193.252  1.00  0.00    -0.287 OA
ATOM    786  OP2  DC A  36      73.851  92.189 194.050  1.00  0.00    -0.624 OA
ATOM    787  OP1  DC A  36      75.212  92.512 191.899  1.00  0.00    -0.624 OA
ATOM    788  C5'  DC A  36      75.641  94.766 194.028  1.00  0.00     0.216 C 
ATOM    789  C4'  DC A  36      75.598  96.197 194.512  1.00  0.00     0.180 C 
ATOM    790  C3'  DC A  36      74.227  96.692 194.969  1.00  0.00     0.198 C 
ATOM    791  O4'  DC A  36      75.989  97.068 193.412  1.00  0.00    -0.353 OA
ATOM    792  O3'  DC A  36      74.340  97.565 196.091  1.00  0.00    -0.279 OA
ATOM    793  C2'  DC A  36      73.687  97.413 193.739  1.00  0.00     0.199 C 
ATOM    794  P    DA A  37      74.062  97.004 197.573  1.00  0.00     0.408 P 
ATOM    795  OP2  DA A  37      74.758  95.702 197.728  1.00  0.00    -0.624 OA
ATOM    796  OP1  DA A  37      74.359  98.111 198.517  1.00  0.00    -0.624 OA
ATOM    797  O5'  DA A  37      72.491  96.737 197.597  1.00  0.00    -0.287 OA
ATOM    798  C5'  DA A  37      71.567  97.743 197.181  1.00  0.00     0.216 C 
ATOM    799  C4'  DA A  37      70.337  97.717 198.059  1.00  0.00     0.180 C 
ATOM    800  C3'  DA A  37      70.580  97.309 199.508  1.00  0.00     0.198 C 
ATOM    801  O4'  DA A  37      69.414  96.723 197.533  1.00  0.00    -0.353 OA
ATOM    802  O3'  DA A  37      70.872  98.438 200.328  1.00  0.00    -0.279 OA
ATOM    803  C2'  DA A  37      69.267  96.641 199.896  1.00  0.00     0.199 C 
ATOM    804  P    DT A  38      71.816  98.263 201.619  1.00  0.00     0.408 P 
ATOM    805  O5'  DT A  38      71.349  96.879 202.256  1.00  0.00    -0.287 OA
ATOM    806  OP1  DT A  38      71.478  99.353 202.569  1.00  0.00    -0.624 OA
ATOM    807  OP2  DT A  38      73.217  98.104 201.156  1.00  0.00    -0.624 OA
ATOM    808  C5'  DT A  38      70.190  96.801 203.083  1.00  0.00     0.216 C 
ATOM    809  C4'  DT A  38      70.034  95.401 203.628  1.00  0.00     0.180 C 
ATOM    810  C3'  DT A  38      71.234  94.867 204.396  1.00  0.00     0.198 C 
ATOM    811  O4'  DT A  38      69.873  94.476 202.521  1.00  0.00    -0.353 OA
ATOM    812  C2'  DT A  38      71.089  93.358 204.239  1.00  0.00     0.199 C 
ATOM    813  O3'  DT A  38      71.201  95.284 205.758  1.00  0.00    -0.279 OA
ATOM    814  O2'  DT A  38      70.141  92.836 205.151  1.00  0.00    -0.388 OA
ATOM    815  C1'  DT A  38      70.514  93.249 202.825  1.00  0.00     0.264 C 
ATOM    816 2'HO  DT A  38      70.614  92.645 205.963  1.00  0.00     0.210 HD
ATOM    817  N1   DT A  38      71.526  92.988 201.791  1.00  0.00    -0.280 N 
ATOM    818  C6   DT A  38      72.140  94.017 201.113  1.00  0.00     0.104 A 
ATOM    819  C2   DT A  38      71.840  91.669 201.516  1.00  0.00     0.331 A 
ATOM    820  C5   DT A  38      73.057  93.804 200.165  1.00  0.00     0.092 A 
ATOM    821  C4   DT A  38      73.432  92.468 199.821  1.00  0.00     0.250 A 
ATOM    822  N3   DT A  38      72.782  91.489 200.536  1.00  0.00    -0.275 N 
ATOM    823  O4   DT A  38      74.261  92.144 198.972  1.00  0.00    -0.268 OA
ATOM    824  H3   DT A  38      73.019  90.535 200.307  1.00  0.00     0.173 HD
ATOM    825  O2   DT A  38      71.326  90.730 202.096  1.00  0.00    -0.246 OA
ATOM    826  P    DT A  39      72.513  95.130 206.674  1.00  0.00     0.408 P 
ATOM    827  OP1  DT A  39      72.261  95.879 207.932  1.00  0.00    -0.624 OA
ATOM    828  OP2  DT A  39      73.705  95.461 205.851  1.00  0.00    -0.624 OA
ATOM    829  O5'  DT A  39      72.556  93.576 207.027  1.00  0.00    -0.287 OA
ATOM    830  C5'  DT A  39      73.723  92.796 206.777  1.00  0.00     0.216 C 
ATOM    831  C4'  DT A  39      73.387  91.325 206.840  1.00  0.00     0.180 C 
ATOM    832  C3'  DT A  39      74.565  90.401 207.113  1.00  0.00     0.198 C 
ATOM    833  O4'  DT A  39      72.879  90.902 205.545  1.00  0.00    -0.353 OA
ATOM    834  O3'  DT A  39      74.808  90.261 208.510  1.00  0.00    -0.279 OA
ATOM    835  C2'  DT A  39      74.114  89.100 206.461  1.00  0.00     0.199 C 
ATOM    836  P    DG A  40      76.313  90.068 209.045  1.00  0.00     0.408 P 
ATOM    837  OP1  DG A  40      76.270  90.162 210.527  1.00  0.00    -0.624 OA
ATOM    838  O5'  DG A  40      76.671  88.566 208.656  1.00  0.00    -0.287 OA
ATOM    839  OP2  DG A  40      77.208  90.974 208.279  1.00  0.00    -0.624 OA
ATOM    840  C5'  DG A  40      75.875  87.477 209.123  1.00  0.00     0.216 C 
ATOM    841  C4'  DG A  40      76.466  86.168 208.663  1.00  0.00     0.180 C 
ATOM    842  O4'  DG A  40      76.201  86.005 207.243  1.00  0.00    -0.353 OA
ATOM    843  C3'  DG A  40      77.980  86.058 208.786  1.00  0.00     0.198 C 
ATOM    844  C1'  DG A  40      77.328  85.429 206.608  1.00  0.00     0.262 C 
ATOM    845  C2'  DG A  40      78.326  85.046 207.700  1.00  0.00     0.199 C 
ATOM    846  N9   DG A  40      77.855  86.388 205.643  1.00  0.00    -0.293 N 
ATOM    847  O2'  DG A  40      78.049  83.725 208.127  1.00  0.00    -0.388 OA
ATOM    848 2'HO  DG A  40      77.984  83.754 209.082  1.00  0.00     0.210 HD
ATOM    849  C8   DG A  40      77.623  87.742 205.604  1.00  0.00     0.214 A 
ATOM    850  C4   DG A  40      78.687  86.108 204.587  1.00  0.00     0.187 A 
ATOM    851  N7   DG A  40      78.232  88.340 204.616  1.00  0.00    -0.234 NA
ATOM    852  C5   DG A  40      78.911  87.318 203.964  1.00  0.00     0.173 A 
ATOM    853  C6   DG A  40      79.747  87.352 202.818  1.00  0.00     0.292 A 
ATOM    854  N1   DG A  40      80.227  86.087 202.498  1.00  0.00    -0.153 N 
ATOM    855  O6   DG A  40      80.068  88.323 202.124  1.00  0.00    -0.265 OA
ATOM    856  C2   DG A  40      79.942  84.938 203.191  1.00  0.00     0.703 A 
ATOM    857  H1   DG A  40      80.831  86.011 201.695  1.00  0.00     0.187 HD
ATOM    858  N3   DG A  40      79.167  84.890 204.259  1.00  0.00    -0.044 NA
ATOM    859  N2   DG A  40      80.499  83.815 202.730  1.00  0.00    -0.233 N 
ATOM    860  H21  DG A  40      80.321  82.944 203.206  1.00  0.00     0.174 HD
ATOM    861  H22  DG A  40      81.094  83.838 201.913  1.00  0.00     0.174 HD
ATOM    862  O3'  DG A  40      78.369  85.621 210.084  1.00  0.00    -0.279 OA
ATOM    863  P    DA A  41      79.859  85.917 210.613  1.00  0.00     0.408 P 
ATOM    864  OP2  DA A  41      80.174  87.346 210.359  1.00  0.00    -0.624 OA
ATOM    865  OP1  DA A  41      79.950  85.381 211.995  1.00  0.00    -0.624 OA
ATOM    866  O5'  DA A  41      80.787  85.028 209.672  1.00  0.00    -0.287 OA
ATOM    867  C5'  DA A  41      80.691  83.604 209.677  1.00  0.00     0.216 C 
ATOM    868  C4'  DA A  41      81.837  83.003 208.899  1.00  0.00     0.180 C 
ATOM    869  C3'  DA A  41      83.196  83.641 209.154  1.00  0.00     0.198 C 
ATOM    870  O4'  DA A  41      81.595  83.199 207.480  1.00  0.00    -0.353 OA
ATOM    871  O3'  DA A  41      83.838  83.043 210.277  1.00  0.00    -0.279 OA
ATOM    872  C2'  DA A  41      83.940  83.390 207.847  1.00  0.00     0.199 C 
ATOM    873  P    DA A  42      85.148  83.728 210.908  1.00  0.00     0.408 P 
ATOM    874  O5'  DA A  42      86.306  83.368 209.873  1.00  0.00    -0.287 OA
ATOM    875  OP1  DA A  42      85.441  83.027 212.184  1.00  0.00    -0.624 OA
ATOM    876  OP2  DA A  42      84.955  85.201 210.909  1.00  0.00    -0.624 OA
ATOM    877  C5'  DA A  42      87.221  84.362 209.417  1.00  0.00     0.216 C 
ATOM    878  C4'  DA A  42      87.908  83.896 208.155  1.00  0.00     0.180 C 
ATOM    879  C3'  DA A  42      89.074  84.764 207.698  1.00  0.00     0.198 C 
ATOM    880  O4'  DA A  42      86.949  83.938 207.060  1.00  0.00    -0.353 OA
ATOM    881  O3'  DA A  42      90.305  84.334 208.276  1.00  0.00    -0.279 OA
ATOM    882  C2'  DA A  42      89.043  84.589 206.184  1.00  0.00     0.199 C 
ATOM    883  P    DG A  43      91.381  85.423 208.771  1.00  0.00     0.408 P 
ATOM    884  O5'  DG A  43      92.134  85.852 207.434  1.00  0.00    -0.287 OA
ATOM    885  OP1  DG A  43      92.354  84.715 209.640  1.00  0.00    -0.624 OA
ATOM    886  OP2  DG A  43      90.646  86.600 209.299  1.00  0.00    -0.624 OA
ATOM    887  C5'  DG A  43      92.731  84.873 206.584  1.00  0.00     0.216 C 
ATOM    888  C4'  DG A  43      93.120  85.494 205.262  1.00  0.00     0.180 C 
ATOM    889  C3'  DG A  43      93.968  86.757 205.350  1.00  0.00     0.198 C 
ATOM    890  O4'  DG A  43      91.918  85.919 204.565  1.00  0.00    -0.353 OA
ATOM    891  O3'  DG A  43      95.352  86.450 205.496  1.00  0.00    -0.279 OA
ATOM    892  C2'  DG A  43      93.659  87.448 204.029  1.00  0.00     0.199 C 
ATOM    893  P    DA A  44      96.315  87.457 206.301  1.00  0.00     0.408 P 
ATOM    894  OP1  DA A  44      97.630  86.781 206.446  1.00  0.00    -0.624 OA
ATOM    895  OP2  DA A  44      95.599  87.935 207.511  1.00  0.00    -0.624 OA
ATOM    896  O5'  DA A  44      96.499  88.691 205.309  1.00  0.00    -0.287 OA
ATOM    897  C5'  DA A  44      97.220  88.552 204.086  1.00  0.00     0.216 C 
ATOM    898  C4'  DA A  44      97.098  89.813 203.261  1.00  0.00     0.180 C 
ATOM    899  C3'  DA A  44      97.557  91.091 203.949  1.00  0.00     0.198 C 
ATOM    900  O4'  DA A  44      95.694  90.037 202.956  1.00  0.00    -0.353 OA
ATOM    901  O3'  DA A  44      98.955  91.307 203.770  1.00  0.00    -0.279 OA
ATOM    902  C2'  DA A  44      96.714  92.162 203.267  1.00  0.00     0.199 C 
ATOM    903  P    DG A  45      99.778  92.163 204.856  1.00  0.00     0.408 P 
ATOM    904  OP1  DG A  45     101.065  92.547 204.223  1.00  0.00    -0.624 OA
ATOM    905  OP2  DG A  45      99.785  91.408 206.134  1.00  0.00    -0.624 OA
ATOM    906  O5'  DG A  45      98.903  93.480 205.054  1.00  0.00    -0.287 OA
ATOM    907  C5'  DG A  45      99.135  94.642 204.261  1.00  0.00     0.216 C 
ATOM    908  C4'  DG A  45      98.000  95.623 204.431  1.00  0.00     0.180 C 
ATOM    909  O4'  DG A  45      98.403  96.646 205.383  1.00  0.00    -0.353 OA
ATOM    910  C3'  DG A  45      97.621  96.394 203.174  1.00  0.00     0.198 C 
ATOM    911  C1'  DG A  45      97.935  97.912 204.953  1.00  0.00     0.262 C 
ATOM    912  N9   DG A  45      99.092  98.762 204.687  1.00  0.00    -0.293 N 
ATOM    913  C2'  DG A  45      97.040  97.686 203.734  1.00  0.00     0.199 C 
ATOM    914  C8   DG A  45      99.550  99.800 205.461  1.00  0.00     0.214 A 
ATOM    915  C4   DG A  45      99.939  98.683 203.607  1.00  0.00     0.187 A 
ATOM    916  N7   DG A  45     100.608 100.383 204.968  1.00  0.00    -0.234 NA
ATOM    917  C5   DG A  45     100.866  99.687 203.794  1.00  0.00     0.173 A 
ATOM    918  C6   DG A  45     101.888  99.863 202.824  1.00  0.00     0.292 A 
ATOM    919  O6   DG A  45     102.798 100.699 202.803  1.00  0.00    -0.265 OA
ATOM    920  N1   DG A  45     101.778  98.939 201.793  1.00  0.00    -0.153 N 
ATOM    921  H1   DG A  45     102.465  98.987 201.055  1.00  0.00     0.187 HD
ATOM    922  C2   DG A  45     100.810  97.972 201.702  1.00  0.00     0.703 A 
ATOM    923  N2   DG A  45     100.869  97.176 200.632  1.00  0.00    -0.233 N 
ATOM    924  N3   DG A  45      99.853  97.797 202.594  1.00  0.00    -0.044 NA
ATOM    925  H22  DG A  45     101.592  97.297 199.939  1.00  0.00     0.174 HD
ATOM    926  H21  DG A  45     100.173  96.451 200.526  1.00  0.00     0.174 HD
ATOM    927  O2'  DG A  45      95.709  97.502 204.176  1.00  0.00    -0.388 OA
ATOM    928 2'HO  DG A  45      95.144  97.620 203.410  1.00  0.00     0.210 HD
ATOM    929  O3'  DG A  45      96.684  95.678 202.375  1.00  0.00    -0.279 OA
ATOM    930  P    DG A  46      96.617  95.952 200.792  1.00  0.00     0.408 P 
ATOM    931  OP2  DG A  46      97.837  95.376 200.166  1.00  0.00    -0.624 OA
ATOM    932  O5'  DG A  46      96.706  97.539 200.673  1.00  0.00    -0.287 OA
ATOM    933  OP1  DG A  46      95.276  95.520 200.319  1.00  0.00    -0.624 OA
ATOM    934  C5'  DG A  46      96.089  98.236 199.589  1.00  0.00     0.216 C 
ATOM    935  C4'  DG A  46      95.055  99.206 200.114  1.00  0.00     0.180 C 
ATOM    936  O4'  DG A  46      95.408  99.599 201.460  1.00  0.00    -0.353 OA
ATOM    937  C3'  DG A  46      94.961 100.525 199.361  1.00  0.00     0.198 C 
ATOM    938  C1'  DG A  46      94.885 100.885 201.724  1.00  0.00     0.262 C 
ATOM    939  N9   DG A  46      95.920 101.672 202.388  1.00  0.00    -0.293 N 
ATOM    940  C2'  DG A  46      94.402 101.496 200.404  1.00  0.00     0.199 C 
ATOM    941  C4   DG A  46      97.263 101.683 202.094  1.00  0.00     0.187 A 
ATOM    942  C8   DG A  46      95.746 102.550 203.429  1.00  0.00     0.214 A 
ATOM    943  C5   DG A  46      97.825 102.575 202.982  1.00  0.00     0.173 A 
ATOM    944  N3   DG A  46      97.869 100.959 201.131  1.00  0.00    -0.044 NA
ATOM    945  N7   DG A  46      96.856 103.115 203.818  1.00  0.00    -0.234 NA
ATOM    946  C6   DG A  46      99.224 102.807 202.924  1.00  0.00     0.292 A 
ATOM    947  N1   DG A  46      99.825 102.053 201.925  1.00  0.00    -0.153 N 
ATOM    948  O6   DG A  46      99.912 103.559 203.623  1.00  0.00    -0.265 OA
ATOM    949  H1   DG A  46     100.821 102.157 201.810  1.00  0.00     0.187 HD
ATOM    950  C2   DG A  46      99.169 101.186 201.089  1.00  0.00     0.703 A 
ATOM    951  N2   DG A  46      99.922 100.548 200.192  1.00  0.00    -0.233 N 
ATOM    952  H22  DG A  46     100.914 100.722 200.138  1.00  0.00     0.174 HD
ATOM    953  H21  DG A  46      99.475  99.899 199.558  1.00  0.00     0.174 HD
ATOM    954  O2'  DG A  46      92.986 101.487 200.401  1.00  0.00    -0.388 OA
ATOM    955 2'HO  DG A  46      92.704 100.614 200.683  1.00  0.00     0.210 HD
ATOM    956  O3'  DG A  46      94.101 100.420 198.229  1.00  0.00    -0.279 OA
ATOM    957  P    DT A  47      94.682  99.900 196.821  1.00  0.00     0.408 P 
ATOM    958  OP2  DT A  47      94.648  98.416 196.817  1.00  0.00    -0.624 OA
ATOM    959  O5'  DT A  47      96.209 100.358 196.835  1.00  0.00    -0.287 OA
ATOM    960  OP1  DT A  47      93.984 100.652 195.746  1.00  0.00    -0.624 OA
ATOM    961  C5'  DT A  47      96.576 101.713 196.578  1.00  0.00     0.216 C 
ATOM    962  C4'  DT A  47      98.080 101.853 196.572  1.00  0.00     0.180 C 
ATOM    963  O4'  DT A  47      98.632 101.066 197.665  1.00  0.00    -0.353 OA
ATOM    964  C3'  DT A  47      98.774 101.330 195.320  1.00  0.00     0.198 C 
ATOM    965  C1'  DT A  47      99.779 100.364 197.220  1.00  0.00     0.264 C 
ATOM    966  N1   DT A  47      99.469  98.926 197.218  1.00  0.00    -0.280 N 
ATOM    967  C2'  DT A  47     100.143 100.921 195.845  1.00  0.00     0.199 C 
ATOM    968  C2   DT A  47     100.421  98.058 197.721  1.00  0.00     0.331 A 
ATOM    969  C6   DT A  47      98.270  98.456 196.729  1.00  0.00     0.104 A 
ATOM    970  O2   DT A  47     101.490  98.432 198.173  1.00  0.00    -0.246 OA
ATOM    971  N3   DT A  47     100.075  96.732 197.680  1.00  0.00    -0.275 N 
ATOM    972  H3   DT A  47     100.748  96.071 198.038  1.00  0.00     0.173 HD
ATOM    973  C4   DT A  47      98.902  96.195 197.201  1.00  0.00     0.250 A 
ATOM    974  O4   DT A  47      98.751  94.975 197.203  1.00  0.00    -0.268 OA
ATOM    975  C5   DT A  47      97.967  97.155 196.707  1.00  0.00     0.092 A 
ATOM    976  O2'  DT A  47     100.983 102.045 196.024  1.00  0.00    -0.388 OA
ATOM    977 2'HO  DT A  47     100.622 102.751 195.488  1.00  0.00     0.210 HD
ATOM    978  O3'  DT A  47      98.850 102.335 194.311  1.00  0.00    -0.279 OA
ATOM    979  P    DC A  48      99.111 101.914 192.780  1.00  0.00     0.408 P 
ATOM    980  O5'  DC A  48     100.694 101.763 192.689  1.00  0.00    -0.287 OA
ATOM    981  OP1  DC A  48      98.709 103.065 191.931  1.00  0.00    -0.624 OA
ATOM    982  OP2  DC A  48      98.505 100.580 192.543  1.00  0.00    -0.624 OA
ATOM    983  C5'  DC A  48     101.555 102.866 192.965  1.00  0.00     0.216 C 
ATOM    984  C4'  DC A  48     102.995 102.411 192.998  1.00  0.00     0.180 C 
ATOM    985  O4'  DC A  48     103.171 101.470 194.091  1.00  0.00    -0.353 OA
ATOM    986  C3'  DC A  48     103.469 101.652 191.768  1.00  0.00     0.198 C 
ATOM    987  C1'  DC A  48     104.073 100.447 193.701  1.00  0.00     0.264 C 
ATOM    988  C2'  DC A  48     104.621 100.825 192.324  1.00  0.00     0.199 C 
ATOM    989  N1   DC A  48     103.356  99.162 193.721  1.00  0.00    -0.278 N 
ATOM    990  O2'  DC A  48     105.780 101.618 192.500  1.00  0.00    -0.388 OA
ATOM    991 2'HO  DC A  48     105.629 102.433 192.019  1.00  0.00     0.210 HD
ATOM    992  C2   DC A  48     104.077  97.989 193.969  1.00  0.00     0.352 A 
ATOM    993  C6   DC A  48     102.007  99.108 193.506  1.00  0.00     0.102 A 
ATOM    994  O2   DC A  48     105.299  98.062 194.154  1.00  0.00    -0.244 OA
ATOM    995  N3   DC A  48     103.424  96.806 194.000  1.00  0.00    -0.177 NA
ATOM    996  C4   DC A  48     102.107  96.766 193.793  1.00  0.00     0.128 A 
ATOM    997  C5   DC A  48     101.347  97.944 193.535  1.00  0.00     0.067 A 
ATOM    998  N4   DC A  48     101.506  95.577 193.835  1.00  0.00    -0.384 N 
ATOM    999  H41  DC A  48     100.510  95.504 193.685  1.00  0.00     0.157 HD
ATOM   1000  H42  DC A  48     102.051  94.746 194.019  1.00  0.00     0.157 HD
ATOM   1001  O3'  DC A  48     103.882 102.536 190.730  1.00  0.00    -0.279 OA
ATOM   1002  P    DA A  49     103.900 102.024 189.206  1.00  0.00     0.408 P 
ATOM   1003  O5'  DA A  49     104.986 100.858 189.205  1.00  0.00    -0.287 OA
ATOM   1004  OP1  DA A  49     104.416 103.140 188.372  1.00  0.00    -0.624 OA
ATOM   1005  OP2  DA A  49     102.576 101.428 188.896  1.00  0.00    -0.624 OA
ATOM   1006  C5'  DA A  49     106.337 101.114 189.586  1.00  0.00     0.216 C 
ATOM   1007  C4'  DA A  49     107.158  99.850 189.478  1.00  0.00     0.180 C 
ATOM   1008  O4'  DA A  49     106.886  98.998 190.620  1.00  0.00    -0.353 OA
ATOM   1009  C3'  DA A  49     106.843  98.959 188.288  1.00  0.00     0.198 C 
ATOM   1010  C1'  DA A  49     107.039  97.641 190.241  1.00  0.00     0.262 C 
ATOM   1011  C2'  DA A  49     107.371  97.604 188.747  1.00  0.00     0.199 C 
ATOM   1012  N9   DA A  49     105.810  96.924 190.583  1.00  0.00    -0.294 N 
ATOM   1013  O2'  DA A  49     108.777  97.523 188.601  1.00  0.00    -0.388 OA
ATOM   1014 2'HO  DA A  49     108.948  97.255 187.697  1.00  0.00     0.210 HD
ATOM   1015  C4   DA A  49     105.713  95.593 190.909  1.00  0.00     0.167 A 
ATOM   1016  C8   DA A  49     104.530  97.420 190.644  1.00  0.00     0.214 A 
ATOM   1017  N3   DA A  49     106.710  94.696 190.979  1.00  0.00    -0.222 NA
ATOM   1018  C5   DA A  49     104.371  95.361 191.152  1.00  0.00     0.149 A 
ATOM   1019  C2   DA A  49     106.243  93.499 191.325  1.00  0.00     0.237 A 
ATOM   1020  N1   DA A  49     104.983  93.125 191.589  1.00  0.00    -0.222 NA
ATOM   1021  C6   DA A  49     104.005  94.051 191.509  1.00  0.00     0.155 A 
ATOM   1022  N6   DA A  49     102.752  93.678 191.772  1.00  0.00    -0.382 N 
ATOM   1023  H62  DA A  49     102.549  92.721 192.027  1.00  0.00     0.157 HD
ATOM   1024  H61  DA A  49     102.005  94.354 191.718  1.00  0.00     0.157 HD
ATOM   1025  N7   DA A  49     103.633  96.524 190.982  1.00  0.00    -0.236 NA
ATOM   1026  O3'  DA A  49     107.479  99.425 187.100  1.00  0.00    -0.279 OA
ATOM   1027  P    DG A  50     106.736  99.275 185.680  1.00  0.00     0.408 P 
ATOM   1028  O5'  DG A  50     107.294  97.901 185.097  1.00  0.00    -0.287 OA
ATOM   1029  OP1  DG A  50     107.227 100.373 184.810  1.00  0.00    -0.624 OA
ATOM   1030  OP2  DG A  50     105.277  99.120 185.909  1.00  0.00    -0.624 OA
ATOM   1031  C5'  DG A  50     108.651  97.777 184.676  1.00  0.00     0.216 C 
ATOM   1032  C4'  DG A  50     109.108  96.342 184.804  1.00  0.00     0.180 C 
ATOM   1033  O4'  DG A  50     108.875  95.888 186.168  1.00  0.00    -0.353 OA
ATOM   1034  C3'  DG A  50     108.362  95.334 183.941  1.00  0.00     0.198 C 
ATOM   1035  C1'  DG A  50     108.412  94.547 186.151  1.00  0.00     0.262 C 
ATOM   1036  N9   DG A  50     107.035  94.528 186.634  1.00  0.00    -0.293 N 
ATOM   1037  C2'  DG A  50     108.560  94.041 184.719  1.00  0.00     0.199 C 
ATOM   1038  C4   DG A  50     106.444  93.548 187.393  1.00  0.00     0.187 A 
ATOM   1039  C8   DG A  50     106.071  95.482 186.418  1.00  0.00     0.214 A 
ATOM   1040  N3   DG A  50     107.039  92.418 187.834  1.00  0.00    -0.044 NA
ATOM   1041  C5   DG A  50     105.147  93.969 187.592  1.00  0.00     0.173 A 
ATOM   1042  C2   DG A  50     106.212  91.669 188.539  1.00  0.00     0.703 A 
ATOM   1043  N2   DG A  50     106.640  90.511 189.049  1.00  0.00    -0.233 N 
ATOM   1044  N1   DG A  50     104.905  91.998 188.796  1.00  0.00    -0.153 N 
ATOM   1045  H22  DG A  50     106.022  89.933 189.601  1.00  0.00     0.174 HD
ATOM   1046  H21  DG A  50     107.595  90.224 188.887  1.00  0.00     0.174 HD
ATOM   1047  H1   DG A  50     104.354  91.361 189.349  1.00  0.00     0.187 HD
ATOM   1048  C6   DG A  50     104.271  93.153 188.352  1.00  0.00     0.292 A 
ATOM   1049  O6   DG A  50     103.086  93.350 188.638  1.00  0.00    -0.265 OA
ATOM   1050  N7   DG A  50     104.926  95.191 186.971  1.00  0.00    -0.234 NA
ATOM   1051  O2'  DG A  50     109.871  93.533 184.546  1.00  0.00    -0.388 OA
ATOM   1052 2'HO  DG A  50     110.197  93.885 183.718  1.00  0.00     0.210 HD
ATOM   1053  O3'  DG A  50     108.892  95.267 182.619  1.00  0.00    -0.279 OA
ATOM   1054  P    DC A  51     107.938  94.837 181.397  1.00  0.00     0.408 P 
ATOM   1055  OP1  DC A  51     108.781  94.773 180.177  1.00  0.00    -0.624 OA
ATOM   1056  OP2  DC A  51     106.734  95.707 181.413  1.00  0.00    -0.624 OA
ATOM   1057  O5'  DC A  51     107.484  93.355 181.768  1.00  0.00    -0.287 OA
ATOM   1058  C5'  DC A  51     108.436  92.296 181.843  1.00  0.00     0.216 C 
ATOM   1059  C4'  DC A  51     107.842  91.103 182.557  1.00  0.00     0.180 C 
ATOM   1060  C3'  DC A  51     106.650  90.449 181.881  1.00  0.00     0.198 C 
ATOM   1061  O4'  DC A  51     107.301  91.514 183.837  1.00  0.00    -0.353 OA
ATOM   1062  C2'  DC A  51     106.011  89.679 183.032  1.00  0.00     0.199 C 
ATOM   1063  O3'  DC A  51     107.047  89.600 180.808  1.00  0.00    -0.279 OA
ATOM   1064  O2'  DC A  51     106.695  88.464 183.276  1.00  0.00    -0.388 OA
ATOM   1065  C1'  DC A  51     106.262  90.624 184.210  1.00  0.00     0.264 C 
ATOM   1066 2'HO  DC A  51     107.209  88.275 182.490  1.00  0.00     0.210 HD
ATOM   1067  N1   DC A  51     105.076  91.411 184.587  1.00  0.00    -0.278 N 
ATOM   1068  C6   DC A  51     105.016  92.757 184.350  1.00  0.00     0.102 A 
ATOM   1069  C2   DC A  51     104.002  90.755 185.191  1.00  0.00     0.352 A 
ATOM   1070  C5   DC A  51     103.935  93.471 184.691  1.00  0.00     0.067 A 
ATOM   1071  C4   DC A  51     102.854  92.772 185.301  1.00  0.00     0.128 A 
ATOM   1072  N4   DC A  51     101.751  93.424 185.661  1.00  0.00    -0.384 N 
ATOM   1073  N3   DC A  51     102.903  91.459 185.533  1.00  0.00    -0.177 NA
ATOM   1074  H42  DC A  51     100.993  92.922 186.103  1.00  0.00     0.157 HD
ATOM   1075  H41  DC A  51     101.676  94.418 185.503  1.00  0.00     0.157 HD
ATOM   1076  O2   DC A  51     104.084  89.536 185.402  1.00  0.00    -0.244 OA
ATOM   1077  P    DC A  52     105.998  89.246 179.639  1.00  0.00     0.408 P 
ATOM   1078  OP1  DC A  52     106.744  88.521 178.579  1.00  0.00    -0.624 OA
ATOM   1079  O5'  DC A  52     104.987  88.223 180.326  1.00  0.00    -0.287 OA
ATOM   1080  OP2  DC A  52     105.243  90.477 179.293  1.00  0.00    -0.624 OA
ATOM   1081  C5'  DC A  52     105.412  86.918 180.713  1.00  0.00     0.216 C 
ATOM   1082  C4'  DC A  52     104.215  86.030 180.962  1.00  0.00     0.180 C 
ATOM   1083  O4'  DC A  52     103.691  86.304 182.294  1.00  0.00    -0.353 OA
ATOM   1084  C3'  DC A  52     103.026  86.252 180.036  1.00  0.00     0.198 C 
ATOM   1085  C1'  DC A  52     102.273  86.316 182.257  1.00  0.00     0.264 C 
ATOM   1086  N1   DC A  52     101.813  87.694 182.501  1.00  0.00    -0.278 N 
ATOM   1087  C2'  DC A  52     101.864  85.767 180.891  1.00  0.00     0.199 C 
ATOM   1088  C2   DC A  52     100.537  87.897 183.033  1.00  0.00     0.352 A 
ATOM   1089  C6   DC A  52     102.619  88.760 182.214  1.00  0.00     0.102 A 
ATOM   1090  N3   DC A  52     100.112  89.160 183.266  1.00  0.00    -0.177 NA
ATOM   1091  O2   DC A  52      99.823  86.915 183.278  1.00  0.00    -0.244 OA
ATOM   1092  C4   DC A  52     100.909  90.193 182.990  1.00  0.00     0.128 A 
ATOM   1093  N4   DC A  52     100.452  91.417 183.247  1.00  0.00    -0.384 N 
ATOM   1094  C5   DC A  52     102.213  90.015 182.443  1.00  0.00     0.067 A 
ATOM   1095  H42  DC A  52      99.529  91.533 183.644  1.00  0.00     0.157 HD
ATOM   1096  H41  DC A  52     101.022  92.227 183.056  1.00  0.00     0.157 HD
ATOM   1097  O2'  DC A  52     101.832  84.353 180.960  1.00  0.00    -0.388 OA
ATOM   1098 2'HO  DC A  52     102.319  84.030 180.201  1.00  0.00     0.210 HD
ATOM   1099  O3'  DC A  52     103.151  85.522 178.820  1.00  0.00    -0.279 OA
ATOM   1100  P    DC A  53     102.353  86.010 177.512  1.00  0.00     0.408 P 
ATOM   1101  OP2  DC A  53     102.556  87.473 177.355  1.00  0.00    -0.624 OA
ATOM   1102  OP1  DC A  53     102.718  85.094 176.401  1.00  0.00    -0.624 OA
ATOM   1103  O5'  DC A  53     100.822  85.760 177.880  1.00  0.00    -0.287 OA
ATOM   1104  C5'  DC A  53     100.329  84.440 178.105  1.00  0.00     0.216 C 
ATOM   1105  C4'  DC A  53      98.902  84.488 178.599  1.00  0.00     0.180 C 
ATOM   1106  O4'  DC A  53      98.852  85.176 179.878  1.00  0.00    -0.353 OA
ATOM   1107  C3'  DC A  53      97.925  85.276 177.741  1.00  0.00     0.198 C 
ATOM   1108  C1'  DC A  53      97.613  85.857 180.000  1.00  0.00     0.264 C 
ATOM   1109  N1   DC A  53      97.882  87.289 180.210  1.00  0.00    -0.278 N 
ATOM   1110  C2'  DC A  53      96.808  85.573 178.732  1.00  0.00     0.199 C 
ATOM   1111  C6   DC A  53      99.081  87.840 179.853  1.00  0.00     0.102 A 
ATOM   1112  C2   DC A  53      96.884  88.085 180.779  1.00  0.00     0.352 A 
ATOM   1113  C5   DC A  53      99.329  89.142 180.044  1.00  0.00     0.067 A 
ATOM   1114  C4   DC A  53      98.292  89.927 180.624  1.00  0.00     0.128 A 
ATOM   1115  N3   DC A  53      97.117  89.401 180.973  1.00  0.00    -0.177 NA
ATOM   1116  N4   DC A  53      98.476  91.229 180.838  1.00  0.00    -0.384 N 
ATOM   1117  H41  DC A  53      99.350  91.669 180.590  1.00  0.00     0.157 HD
ATOM   1118  H42  DC A  53      97.734  91.777 181.253  1.00  0.00     0.157 HD
ATOM   1119  O2   DC A  53      95.805  87.563 181.093  1.00  0.00    -0.244 OA
ATOM   1120  O2'  DC A  53      96.001  84.431 178.953  1.00  0.00    -0.388 OA
ATOM   1121 2'HO  DC A  53      96.123  83.855 178.197  1.00  0.00     0.210 HD
ATOM   1122  O3'  DC A  53      97.473  84.527 176.616  1.00  0.00    -0.279 OA
ATOM   1123  P    DC A  54      96.908  85.297 175.321  1.00  0.00     0.408 P 
ATOM   1124  OP2  DC A  54      97.845  86.398 174.982  1.00  0.00    -0.624 OA
ATOM   1125  O5'  DC A  54      95.543  85.949 175.825  1.00  0.00    -0.287 OA
ATOM   1126  OP1  DC A  54      96.583  84.269 174.300  1.00  0.00    -0.624 OA
ATOM   1127  C5'  DC A  54      94.438  85.131 176.207  1.00  0.00     0.216 C 
ATOM   1128  C4'  DC A  54      93.293  85.991 176.693  1.00  0.00     0.180 C 
ATOM   1129  O4'  DC A  54      93.695  86.685 177.903  1.00  0.00    -0.353 OA
ATOM   1130  C3'  DC A  54      92.863  87.110 175.757  1.00  0.00     0.198 C 
ATOM   1131  C1'  DC A  54      93.068  87.955 177.954  1.00  0.00     0.264 C 
ATOM   1132  N1   DC A  54      94.112  88.989 178.045  1.00  0.00    -0.278 N 
ATOM   1133  C2'  DC A  54      92.186  88.088 176.710  1.00  0.00     0.199 C 
ATOM   1134  C6   DC A  54      95.380  88.750 177.591  1.00  0.00     0.102 A 
ATOM   1135  C2   DC A  54      93.787  90.227 178.604  1.00  0.00     0.352 A 
ATOM   1136  C5   DC A  54      96.333  89.686 177.676  1.00  0.00     0.067 A 
ATOM   1137  C4   DC A  54      95.971  90.939 178.252  1.00  0.00     0.128 A 
ATOM   1138  N4   DC A  54      96.874  91.911 178.365  1.00  0.00    -0.384 N 
ATOM   1139  N3   DC A  54      94.737  91.184 178.692  1.00  0.00    -0.177 NA
ATOM   1140  H41  DC A  54      97.822  91.771 178.046  1.00  0.00     0.157 HD
ATOM   1141  H42  DC A  54      96.603  92.793 178.780  1.00  0.00     0.157 HD
ATOM   1142  O2   DC A  54      92.632  90.420 179.009  1.00  0.00    -0.244 OA
ATOM   1143  O2'  DC A  54      90.878  87.660 177.039  1.00  0.00    -0.388 OA
ATOM   1144 2'HO  DC A  54      90.748  86.811 176.614  1.00  0.00     0.210 HD
ATOM   1145  O3'  DC A  54      91.979  86.640 174.743  1.00  0.00    -0.279 OA
ATOM   1146  P    DC A  55      91.800  87.482 173.384  1.00  0.00     0.408 P 
ATOM   1147  OP2  DC A  55      93.143  87.894 172.903  1.00  0.00    -0.624 OA
ATOM   1148  OP1  DC A  55      90.907  86.701 172.491  1.00  0.00    -0.624 OA
ATOM   1149  O5'  DC A  55      91.016  88.794 173.841  1.00  0.00    -0.287 OA
ATOM   1150  C5'  DC A  55      89.721  88.708 174.434  1.00  0.00     0.216 C 
ATOM   1151  C4'  DC A  55      89.196  90.090 174.744  1.00  0.00     0.180 C 
ATOM   1152  C3'  DC A  55      89.437  91.140 173.670  1.00  0.00     0.182 C 
ATOM   1153  O4'  DC A  55      89.887  90.607 175.910  1.00  0.00    -0.353 OA
ATOM   1154  C2'  DC A  55      89.401  92.440 174.466  1.00  0.00     0.198 C 
ATOM   1155  O3'  DC A  55      88.444  91.101 172.640  1.00  0.00    -0.390 OA
ATOM   1156  C1'  DC A  55      90.046  92.009 175.785  1.00  0.00     0.264 C 
ATOM   1157  O2'  DC A  55      88.068  92.845 174.724  1.00  0.00    -0.388 OA
ATOM   1158  N1   DC A  55      91.481  92.323 175.872  1.00  0.00    -0.278 N 
ATOM   1159  C2   DC A  55      91.876  93.498 176.518  1.00  0.00     0.352 A 
ATOM   1160  C6   DC A  55      92.416  91.484 175.334  1.00  0.00     0.102 A 
ATOM   1161  N3   DC A  55      93.191  93.794 176.606  1.00  0.00    -0.177 NA
ATOM   1162  O2   DC A  55      91.007  94.243 176.993  1.00  0.00    -0.244 OA
ATOM   1163  C4   DC A  55      94.096  92.969 176.079  1.00  0.00     0.128 A 
ATOM   1164  N4   DC A  55      95.381  93.303 176.193  1.00  0.00    -0.384 N 
ATOM   1165  C5   DC A  55      93.723  91.765 175.414  1.00  0.00     0.067 A 
ATOM   1166  H41  DC A  55      96.099  92.708 175.808  1.00  0.00     0.157 HD
ATOM   1167  H42  DC A  55      95.629  94.158 176.672  1.00  0.00     0.157 HD
ATOM   1168 2'HO  DC A  55      87.534  92.530 173.993  1.00  0.00     0.210 HD
ATOM   1169 3'HO  DC A  55      88.385  90.191 172.339  1.00  0.00     0.210 HD
ATOM   1170  O2'  DA A  44      97.245  92.499 201.998  1.00  0.00    -0.388 OA
ATOM   1171  C1'  DA A  44      95.395  91.417 203.063  1.00  0.00     0.262 C 
ATOM   1172 2'HO  DA A  44      98.149  92.184 201.983  1.00  0.00     0.210 HD
ATOM   1173  N9   DA A  44      94.442  91.597 204.157  1.00  0.00    -0.294 N 
ATOM   1174  C4   DA A  44      93.573  92.649 204.314  1.00  0.00     0.167 A 
ATOM   1175  C8   DA A  44      94.222  90.766 205.229  1.00  0.00     0.214 A 
ATOM   1176  N3   DA A  44      93.428  93.715 203.507  1.00  0.00    -0.222 NA
ATOM   1177  C5   DA A  44      92.870  92.387 205.477  1.00  0.00     0.149 A 
ATOM   1178  C2   DA A  44      92.488  94.533 203.974  1.00  0.00     0.237 A 
ATOM   1179  N1   DA A  44      91.731  94.413 205.073  1.00  0.00    -0.222 NA
ATOM   1180  C6   DA A  44      91.901  93.328 205.860  1.00  0.00     0.155 A 
ATOM   1181  N6   DA A  44      91.143  93.209 206.950  1.00  0.00    -0.382 N 
ATOM   1182  H61  DA A  44      91.251  92.405 207.554  1.00  0.00     0.157 HD
ATOM   1183  H62  DA A  44      90.456  93.915 207.171  1.00  0.00     0.157 HD
ATOM   1184  N7   DA A  44      93.290  91.193 206.046  1.00  0.00    -0.236 NA
ATOM   1185  O2'  DG A  43      94.373  86.852 202.961  1.00  0.00    -0.388 OA
ATOM   1186  C1'  DG A  43      92.173  87.125 203.865  1.00  0.00     0.262 C 
ATOM   1187 2'HO  DG A  43      95.234  86.614 203.307  1.00  0.00     0.210 HD
ATOM   1188  N9   DG A  43      91.287  88.160 204.391  1.00  0.00    -0.293 N 
ATOM   1189  C4   DG A  43      91.099  89.418 203.870  1.00  0.00     0.187 A 
ATOM   1190  C8   DG A  43      90.479  88.075 205.498  1.00  0.00     0.214 A 
ATOM   1191  N3   DG A  43      91.706  89.923 202.775  1.00  0.00    -0.044 NA
ATOM   1192  C5   DG A  43      90.176  90.022 204.698  1.00  0.00     0.173 A 
ATOM   1193  C2   DG A  43      91.318  91.161 202.524  1.00  0.00     0.703 A 
ATOM   1194  N1   DG A  43      90.409  91.850 203.283  1.00  0.00    -0.153 N 
ATOM   1195  N2   DG A  43      91.823  91.815 201.475  1.00  0.00    -0.233 N 
ATOM   1196  H1   DG A  43      90.184  92.792 203.001  1.00  0.00     0.187 HD
ATOM   1197  C6   DG A  43      89.770  91.352 204.413  1.00  0.00     0.292 A 
ATOM   1198  O6   DG A  43      88.962  92.059 205.024  1.00  0.00    -0.265 OA
ATOM   1199  H21  DG A  43      92.499  91.353 200.883  1.00  0.00     0.174 HD
ATOM   1200  H22  DG A  43      91.534  92.762 201.275  1.00  0.00     0.174 HD
ATOM   1201  N7   DG A  43      89.794  89.162 205.720  1.00  0.00    -0.234 NA
ATOM   1202  O2'  DA A  42      89.595  83.342 205.801  1.00  0.00    -0.388 OA
ATOM   1203  C1'  DA A  42      87.538  84.560 205.933  1.00  0.00     0.262 C 
ATOM   1204 2'HO  DA A  42      90.305  83.158 206.417  1.00  0.00     0.210 HD
ATOM   1205  N9   DA A  42      86.938  85.885 205.775  1.00  0.00    -0.294 N 
ATOM   1206  C4   DA A  42      87.232  86.807 204.798  1.00  0.00     0.167 A 
ATOM   1207  C8   DA A  42      85.978  86.470 206.564  1.00  0.00     0.214 A 
ATOM   1208  N3   DA A  42      88.117  86.680 203.795  1.00  0.00    -0.222 NA
ATOM   1209  C5   DA A  42      86.428  87.902 205.060  1.00  0.00     0.149 A 
ATOM   1210  C2   DA A  42      88.136  87.779 203.044  1.00  0.00     0.237 A 
ATOM   1211  N1   DA A  42      87.423  88.907 203.172  1.00  0.00    -0.222 NA
ATOM   1212  C6   DA A  42      86.542  89.001 204.192  1.00  0.00     0.155 A 
ATOM   1213  N6   DA A  42      85.832  90.121 204.322  1.00  0.00    -0.382 N 
ATOM   1214  H61  DA A  42      85.170  90.208 205.078  1.00  0.00     0.157 HD
ATOM   1215  H62  DA A  42      85.956  90.884 203.669  1.00  0.00     0.157 HD
ATOM   1216  N7   DA A  42      85.639  87.675 206.179  1.00  0.00    -0.236 NA
ATOM   1217  O2'  DA A  41      84.455  82.074 207.792  1.00  0.00    -0.388 OA
ATOM   1218  C1'  DA A  41      82.809  83.515 206.825  1.00  0.00     0.262 C 
ATOM   1219 2'HO  DA A  41      85.379  82.128 208.038  1.00  0.00     0.210 HD
ATOM   1220  N9   DA A  41      82.681  84.853 206.246  1.00  0.00    -0.294 N 
ATOM   1221  C8   DA A  41      81.957  85.914 206.732  1.00  0.00     0.214 A 
ATOM   1222  C4   DA A  41      83.270  85.299 205.088  1.00  0.00     0.167 A 
ATOM   1223  N7   DA A  41      82.030  86.989 205.985  1.00  0.00    -0.236 NA
ATOM   1224  C5   DA A  41      82.861  86.612 204.939  1.00  0.00     0.149 A 
ATOM   1225  C6   DA A  41      83.334  87.304 203.809  1.00  0.00     0.155 A 
ATOM   1226  N6   DA A  41      83.022  88.570 203.532  1.00  0.00    -0.382 N 
ATOM   1227  N1   DA A  41      84.147  86.639 202.961  1.00  0.00    -0.222 NA
ATOM   1228  H61  DA A  41      82.414  89.083 204.153  1.00  0.00     0.157 HD
ATOM   1229  H62  DA A  41      83.394  89.014 202.704  1.00  0.00     0.157 HD
ATOM   1230  C2   DA A  41      84.458  85.365 203.237  1.00  0.00     0.237 A 
ATOM   1231  N3   DA A  41      84.076  84.608 204.263  1.00  0.00    -0.222 NA
ATOM   1232  C1'  DT A  39      73.414  89.632 205.212  1.00  0.00     0.264 C 
ATOM   1233  O2'  DT A  39      73.166  88.426 207.266  1.00  0.00    -0.388 OA
ATOM   1234  N1   DT A  39      74.308  89.792 204.056  1.00  0.00    -0.280 N 
ATOM   1235  C2   DT A  39      74.820  88.646 203.474  1.00  0.00     0.331 A 
ATOM   1236  C6   DT A  39      74.631  91.038 203.569  1.00  0.00     0.104 A 
ATOM   1237  O2   DT A  39      74.554  87.526 203.869  1.00  0.00    -0.246 OA
ATOM   1238  N3   DT A  39      75.656  88.861 202.408  1.00  0.00    -0.275 N 
ATOM   1239  C4   DT A  39      76.021  90.074 201.873  1.00  0.00     0.250 A 
ATOM   1240  H3   DT A  39      76.050  88.038 201.975  1.00  0.00     0.173 HD
ATOM   1241  O4   DT A  39      76.785  90.104 200.908  1.00  0.00    -0.268 OA
ATOM   1242  C5   DT A  39      75.449  91.209 202.526  1.00  0.00     0.092 A 
ATOM   1243 2'HO  DT A  39      73.367  88.651 208.174  1.00  0.00     0.210 HD
ATOM   1244  O2'  DA A  37      68.268  97.601 200.188  1.00  0.00    -0.388 OA
ATOM   1245  C1'  DA A  37      68.902  95.936 198.592  1.00  0.00     0.262 C 
ATOM   1246 2'HO  DA A  37      68.721  98.429 200.353  1.00  0.00     0.210 HD
ATOM   1247  N9   DA A  37      69.458  94.589 198.478  1.00  0.00    -0.294 N 
ATOM   1248  C8   DA A  37      70.444  94.147 197.630  1.00  0.00     0.214 A 
ATOM   1249  C4   DA A  37      69.085  93.496 199.222  1.00  0.00     0.167 A 
ATOM   1250  N7   DA A  37      70.731  92.876 197.772  1.00  0.00    -0.236 NA
ATOM   1251  C5   DA A  37      69.875  92.452 198.778  1.00  0.00     0.149 A 
ATOM   1252  C6   DA A  37      69.683  91.203 199.394  1.00  0.00     0.155 A 
ATOM   1253  N1   DA A  37      68.751  91.119 200.367  1.00  0.00    -0.222 NA
ATOM   1254  N6   DA A  37      70.364  90.105 199.072  1.00  0.00    -0.382 N 
ATOM   1255  C2   DA A  37      68.060  92.219 200.690  1.00  0.00     0.237 A 
ATOM   1256  N3   DA A  37      68.147  93.447 200.183  1.00  0.00    -0.222 NA
ATOM   1257  H62  DA A  37      70.165  89.236 199.545  1.00  0.00     0.157 HD
ATOM   1258  H61  DA A  37      71.068  90.141 198.347  1.00  0.00     0.157 HD
ATOM   1259  O2'  DC A  36      72.814  98.467 194.101  1.00  0.00    -0.388 OA
ATOM   1260  C1'  DC A  36      74.969  98.012 193.168  1.00  0.00     0.264 C 
ATOM   1261 2'HO  DC A  36      73.010  98.690 195.012  1.00  0.00     0.210 HD
ATOM   1262  N1   DC A  36      74.922  98.279 191.722  1.00  0.00    -0.278 N 
ATOM   1263  C2   DC A  36      75.015  99.600 191.274  1.00  0.00     0.352 A 
ATOM   1264  C6   DC A  36      74.789  97.254 190.826  1.00  0.00     0.102 A 
ATOM   1265  O2   DC A  36      75.137 100.511 192.107  1.00  0.00    -0.244 OA
ATOM   1266  N3   DC A  36      74.970  99.852 189.947  1.00  0.00    -0.177 NA
ATOM   1267  C4   DC A  36      74.836  98.846 189.083  1.00  0.00     0.128 A 
ATOM   1268  C5   DC A  36      74.742  97.490 189.509  1.00  0.00     0.067 A 
ATOM   1269  N4   DC A  36      74.790  99.145 187.785  1.00  0.00    -0.384 N 
ATOM   1270  H42  DC A  36      74.863 100.110 187.499  1.00  0.00     0.157 HD
ATOM   1271  H41  DC A  36      74.686  98.415 187.095  1.00  0.00     0.157 HD
ATOM   1272  C1'  DA A  32      73.201  83.749 199.573  1.00  0.00     0.262 C 
ATOM   1273  O2'  DA A  32      70.974  83.209 200.264  1.00  0.00    -0.388 OA
ATOM   1274  N9   DA A  32      73.829  84.956 199.038  1.00  0.00    -0.294 N 
ATOM   1275  C4   DA A  32      73.558  86.245 199.431  1.00  0.00     0.167 A 
ATOM   1276  C8   DA A  32      74.788  85.056 198.060  1.00  0.00     0.214 A 
ATOM   1277  N3   DA A  32      72.681  86.642 200.369  1.00  0.00    -0.222 NA
ATOM   1278  C5   DA A  32      74.374  87.053 198.663  1.00  0.00     0.149 A 
ATOM   1279  C2   DA A  32      72.682  87.968 200.482  1.00  0.00     0.237 A 
ATOM   1280  N1   DA A  32      73.409  88.874 199.814  1.00  0.00    -0.222 NA
ATOM   1281  C6   DA A  32      74.281  88.441 198.879  1.00  0.00     0.155 A 
ATOM   1282  N6   DA A  32      75.004  89.345 198.217  1.00  0.00    -0.382 N 
ATOM   1283  H61  DA A  32      75.663  89.045 197.514  1.00  0.00     0.157 HD
ATOM   1284  H62  DA A  32      74.889  90.328 198.421  1.00  0.00     0.157 HD
ATOM   1285  N7   DA A  32      75.148  86.290 197.799  1.00  0.00    -0.236 NA
ATOM   1286 2'HO  DA A  32      70.518  82.399 200.035  1.00  0.00     0.210 HD
ENDBRANCH 698 701
ENDBRANCH 697 698
ENDBRANCH 657 697
ENDBRANCH 537 538
ENDBRANCH 536 537
ENDBRANCH 533 536
ENDBRANCH 532 533
ENDBRANCH 515 532
ENDBRANCH 510 511
ENDBRANCH 509 510
ENDBRANCH 506 509
ENDBRANCH 505 506
ENDBRANCH 490 505
ENDBRANCH 485 486
ENDBRANCH 484 485
ENDBRANCH 481 484
ENDBRANCH 480 481
ENDBRANCH 463 480
ENDBRANCH 458 459
ENDBRANCH 457 458
ENDBRANCH 454 457
ENDBRANCH 453 454
ENDBRANCH 438 453
ENDBRANCH 433 434
ENDBRANCH 432 433
ENDBRANCH 429 432
ENDBRANCH 428 429
ENDBRANCH 424 428
BRANCH 425 1287
ATOM   1287  O2'  DG A  20      78.366 108.117 197.995  1.00  0.00    -0.388 OA
ATOM   1288 2'HO  DG A  20      78.177 109.046 198.138  1.00  0.00     0.210 HD
ENDBRANCH 425 1287
BRANCH 426 1289
ATOM   1289  N9   DG A  20      74.798 107.992 198.787  1.00  0.00    -0.293 N 
ATOM   1290  C8   DG A  20      73.629 107.419 198.348  1.00  0.00     0.214 A 
ATOM   1291  N7   DG A  20      72.753 107.244 199.297  1.00  0.00    -0.234 NA
ATOM   1292  C5   DG A  20      73.379 107.736 200.436  1.00  0.00     0.173 A 
ATOM   1293  C6   DG A  20      72.922 107.814 201.779  1.00  0.00     0.292 A 
ATOM   1294  C4   DG A  20      74.641 108.204 200.136  1.00  0.00     0.187 A 
ATOM   1295  O6   DG A  20      71.838 107.451 202.248  1.00  0.00    -0.265 OA
ATOM   1296  N1   DG A  20      73.880 108.383 202.611  1.00  0.00    -0.153 N 
ATOM   1297  H1   DG A  20      73.647 108.477 203.587  1.00  0.00     0.187 HD
ATOM   1298  C2   DG A  20      75.114 108.822 202.207  1.00  0.00     0.703 A 
ATOM   1299  N3   DG A  20      75.553 108.754 200.963  1.00  0.00    -0.044 NA
BRANCH 1298 1300
ATOM   1300  N2   DG A  20      75.894 109.343 203.157  1.00  0.00    -0.233 N 
ATOM   1301  H22  DG A  20      75.548 110.084 203.750  1.00  0.00     0.174 HD
ATOM   1302  H21  DG A  20      76.827 108.979 203.285  1.00  0.00     0.174 HD
ENDBRANCH 1298 1300
ENDBRANCH 426 1289
ENDBRANCH 422 423
ENDBRANCH 421 422
ENDBRANCH 418 421
ENDBRANCH 417 418
ENDBRANCH 400 417
ENDBRANCH 395 396
ENDBRANCH 394 395
ENDBRANCH 391 394
ENDBRANCH 390 391
ENDBRANCH 373 390
ENDBRANCH 368 369
ENDBRANCH 367 368
ENDBRANCH 364 367
ENDBRANCH 363 364
ENDBRANCH 359 363
BRANCH 360 1303
ATOM   1303  O2'  DT A  17      69.518 102.246 194.229  1.00  0.00    -0.388 OA
ATOM   1304 2'HO  DT A  17      68.674 102.039 194.632  1.00  0.00     0.210 HD
ENDBRANCH 360 1303
BRANCH 361 1305
ATOM   1305  N1   DT A  17      71.409 103.370 191.900  1.00  0.00    -0.280 N 
ATOM   1306  C2   DT A  17      72.368 102.586 191.288  1.00  0.00     0.331 A 
ATOM   1307  N3   DT A  17      73.626 103.132 191.249  1.00  0.00    -0.275 N 
ATOM   1308  O2   DT A  17      72.125 101.490 190.813  1.00  0.00    -0.246 OA
ATOM   1309  H3   DT A  17      74.340 102.578 190.804  1.00  0.00     0.173 HD
ATOM   1310  C4   DT A  17      74.014 104.353 191.751  1.00  0.00     0.250 A 
ATOM   1311  O4   DT A  17      75.187 104.706 191.637  1.00  0.00    -0.268 OA
ATOM   1312  C5   DT A  17      72.966 105.102 192.370  1.00  0.00     0.092 A 
ATOM   1313  C6   DT A  17      71.728 104.602 192.425  1.00  0.00     0.104 A 
ENDBRANCH 361 1305
ENDBRANCH 357 358
ENDBRANCH 356 357
ENDBRANCH 353 356
ENDBRANCH 352 353
ENDBRANCH 348 352
BRANCH 349 1314
ATOM   1314  O2'  DT A  16      66.891 109.982 191.398  1.00  0.00    -0.388 OA
ATOM   1315 2'HO  DT A  16      67.782 110.332 191.369  1.00  0.00     0.210 HD
ENDBRANCH 349 1314
BRANCH 350 1316
ATOM   1316  N1   DT A  16      66.529 110.801 194.930  1.00  0.00    -0.280 N 
ATOM   1317  C6   DT A  16      65.592 110.757 195.938  1.00  0.00     0.104 A 
ATOM   1318  C5   DT A  16      65.932 110.751 197.230  1.00  0.00     0.092 A 
ATOM   1319  C4   DT A  16      67.309 110.793 197.608  1.00  0.00     0.250 A 
ATOM   1320  O4   DT A  16      67.745 110.777 198.757  1.00  0.00    -0.268 OA
ATOM   1321  N3   DT A  16      68.190 110.842 196.552  1.00  0.00    -0.275 N 
ATOM   1322  H3   DT A  16      69.171 110.884 196.789  1.00  0.00     0.173 HD
ATOM   1323  C2   DT A  16      67.881 110.849 195.217  1.00  0.00     0.331 A 
ATOM   1324  O2   DT A  16      68.740 110.895 194.355  1.00  0.00    -0.246 OA
ENDBRANCH 350 1316
ENDBRANCH 346 347
ENDBRANCH 345 346
ENDBRANCH 342 345
ENDBRANCH 341 342
ENDBRANCH 337 341
BRANCH 338 1325
ATOM   1325  O2'  DG A  15      60.601 114.095 193.259  1.00  0.00    -0.388 OA
ATOM   1326 2'HO  DG A  15      60.408 114.507 194.101  1.00  0.00     0.210 HD
ENDBRANCH 338 1325
BRANCH 339 1327
ATOM   1327  N9   DG A  15      64.195 114.374 192.874  1.00  0.00    -0.293 N 
ATOM   1328  C4   DG A  15      64.477 113.933 191.604  1.00  0.00     0.187 A 
ATOM   1329  C5   DG A  15      65.845 113.770 191.568  1.00  0.00     0.173 A 
ATOM   1330  N3   DG A  15      63.577 113.716 190.623  1.00  0.00    -0.044 NA
ATOM   1331  N7   DG A  15      66.414 114.102 192.791  1.00  0.00    -0.234 NA
ATOM   1332  C6   DG A  15      66.447 113.315 190.366  1.00  0.00     0.292 A 
ATOM   1333  C8   DG A  15      65.397 114.454 193.531  1.00  0.00     0.214 A 
ATOM   1334  O6   DG A  15      67.642 113.108 190.131  1.00  0.00    -0.265 OA
ATOM   1335  N1   DG A  15      65.501 113.098 189.371  1.00  0.00    -0.153 N 
ATOM   1336  H1   DG A  15      65.838 112.771 188.479  1.00  0.00     0.187 HD
ATOM   1337  C2   DG A  15      64.150 113.293 189.512  1.00  0.00     0.703 A 
BRANCH 1337 1338
ATOM   1338  N2   DG A  15      63.400 113.028 188.440  1.00  0.00    -0.233 N 
ATOM   1339  H22  DG A  15      63.378 112.102 188.041  1.00  0.00     0.174 HD
ATOM   1340  H21  DG A  15      62.849 113.770 188.031  1.00  0.00     0.174 HD
ENDBRANCH 1337 1338
ENDBRANCH 339 1327
ENDBRANCH 335 336
ENDBRANCH 334 335
ENDBRANCH 331 334
ENDBRANCH 330 331
ENDBRANCH 326 330
BRANCH 327 1341
ATOM   1341  O2'  DA A  14      67.583 116.460 196.991  1.00  0.00    -0.388 OA
ATOM   1342 2'HO  DA A  14      66.732 116.471 197.431  1.00  0.00     0.210 HD
ENDBRANCH 327 1341
BRANCH 328 1343
ATOM   1343  N9   DA A  14      70.256 114.335 198.313  1.00  0.00    -0.294 N 
ATOM   1344  C8   DA A  14      70.296 113.109 198.929  1.00  0.00     0.214 A 
ATOM   1345  N7   DA A  14      71.396 112.435 198.693  1.00  0.00    -0.236 NA
ATOM   1346  C5   DA A  14      72.129 113.275 197.865  1.00  0.00     0.149 A 
ATOM   1347  C4   DA A  14      71.439 114.448 197.623  1.00  0.00     0.167 A 
ATOM   1348  C6   DA A  14      73.392 113.142 197.260  1.00  0.00     0.155 A 
ATOM   1349  N3   DA A  14      71.847 115.482 196.867  1.00  0.00    -0.222 NA
ATOM   1350  C2   DA A  14      73.049 115.240 196.350  1.00  0.00     0.237 A 
ATOM   1351  N1   DA A  14      73.832 114.163 196.493  1.00  0.00    -0.222 NA
BRANCH 1348 1352
ATOM   1352  N6   DA A  14      74.173 112.071 197.402  1.00  0.00    -0.382 N 
ATOM   1353  H61  DA A  14      74.844 111.836 196.685  1.00  0.00     0.157 HD
ATOM   1354  H62  DA A  14      74.085 111.496 198.226  1.00  0.00     0.157 HD
ENDBRANCH 1348 1352
ENDBRANCH 328 1343
ENDBRANCH 324 325
ENDBRANCH 323 324
ENDBRANCH 320 323
ENDBRANCH 319 320
ENDBRANCH 318 319
BRANCH 317 1355
ATOM   1355  O2'  DC A  13      71.892 112.646 201.611  1.00  0.00    -0.388 OA
ATOM   1356 2'HO  DC A  13      72.640 112.058 201.509  1.00  0.00     0.210 HD
ENDBRANCH 317 1355
BRANCH 315 1357
ATOM   1357  N4   DC A  13      72.981 110.959 208.848  1.00  0.00    -0.384 N 
ATOM   1358  H41  DC A  13      72.220 111.105 209.495  1.00  0.00     0.157 HD
ATOM   1359  H42  DC A  13      73.778 110.400 209.119  1.00  0.00     0.157 HD
ENDBRANCH 315 1357
TORSDOF 427
ENDMDL
