MODEL 1
REMARK VINA RESULT:     -17.2      0.000      0.000
REMARK  0 active torsions:
REMARK  status: ('A' for Active; 'I' for Inactive)
REMARK       I    between atoms: O5'_2  and  C5'_3 
REMARK       I    between atoms: C5'_3  and  C4'_4 
REMARK       I    between atoms: C1'_6  and  N9_7 
REMARK       I    between atoms: C2_10  and  N2_11 
REMARK       I    between atoms: C2'_21  and  O2'_22 
REMARK       I    between atoms: C3'_24  and  O3'_25 
REMARK       I    between atoms: O3'_25  and  P_26 
REMARK       I    between atoms: P_26  and  O5'_29 
REMARK       I    between atoms: O5'_29  and  C5'_30 
REMARK       I    between atoms: C5'_30  and  C4'_31 
REMARK       I    between atoms: C1'_33  and  N9_34 
REMARK       I    between atoms: C2_37  and  N2_38 
REMARK       I    between atoms: C2'_48  and  O2'_49 
REMARK       I    between atoms: C3'_51  and  O3'_52 
REMARK       I    between atoms: O3'_52  and  P_53 
REMARK       I    between atoms: P_53  and  O5'_56 
REMARK       I    between atoms: O5'_56  and  C5'_57 
REMARK       I    between atoms: C5'_57  and  C4'_58 
REMARK       I    between atoms: C1'_60  and  N9_61 
REMARK       I    between atoms: C2_64  and  N2_65 
REMARK       I    between atoms: C2'_75  and  O2'_76 
REMARK       I    between atoms: C3'_78  and  O3'_79 
REMARK       I    between atoms: O3'_79  and  P_80 
REMARK       I    between atoms: P_80  and  O5'_83 
REMARK       I    between atoms: O5'_83  and  C5'_84 
REMARK       I    between atoms: C5'_84  and  C4'_85 
REMARK       I    between atoms: C1'_87  and  N9_88 
REMARK       I    between atoms: C2_91  and  N2_92 
REMARK       I    between atoms: C2'_102  and  O2'_103 
REMARK       I    between atoms: C3'_105  and  O3'_106 
REMARK       I    between atoms: O3'_106  and  P_107 
REMARK       I    between atoms: P_107  and  O5'_110 
REMARK       I    between atoms: O5'_110  and  C5'_111 
REMARK       I    between atoms: C5'_111  and  C4'_112 
REMARK       I    between atoms: C1'_114  and  N9_115 
REMARK       I    between atoms: C2_118  and  N2_119 
REMARK       I    between atoms: C2'_129  and  O2'_130 
REMARK       I    between atoms: C3'_132  and  O3'_133 
REMARK       I    between atoms: O3'_133  and  P_134 
REMARK       I    between atoms: P_134  and  O5'_137 
REMARK       I    between atoms: O5'_137  and  C5'_138 
REMARK       I    between atoms: C5'_138  and  C4'_139 
REMARK       I    between atoms: C1'_141  and  N9_142 
REMARK       I    between atoms: C2_145  and  N2_146 
REMARK       I    between atoms: C2'_156  and  O2'_157 
REMARK       I    between atoms: C3'_159  and  O3'_160 
REMARK       I    between atoms: O3'_160  and  P_161 
REMARK       I    between atoms: P_161  and  O5'_164 
REMARK       I    between atoms: O5'_164  and  C5'_165 
REMARK       I    between atoms: C5'_165  and  C4'_166 
REMARK       I    between atoms: C1'_168  and  N9_169 
REMARK       I    between atoms: C2_172  and  N2_173 
REMARK       I    between atoms: C2'_183  and  O2'_184 
REMARK       I    between atoms: C3'_186  and  O3'_187 
REMARK       I    between atoms: O3'_187  and  P_188 
REMARK       I    between atoms: P_188  and  O5'_191 
REMARK       I    between atoms: O5'_191  and  C5'_192 
REMARK       I    between atoms: C5'_192  and  C4'_193 
REMARK       I    between atoms: C1'_195  and  N1_196 
REMARK       I    between atoms: C2'_205  and  O2'_206 
REMARK       I    between atoms: C3'_208  and  O3'_209 
REMARK       I    between atoms: O3'_209  and  P_210 
REMARK       I    between atoms: P_210  and  O5'_213 
REMARK       I    between atoms: O5'_213  and  C5'_214 
REMARK       I    between atoms: C5'_214  and  C4'_215 
REMARK       I    between atoms: C1'_217  and  N9_218 
REMARK       I    between atoms: C6_223  and  N6_224 
REMARK       I    between atoms: C2'_230  and  O2'_231 
REMARK       I    between atoms: C3'_233  and  O3'_234 
REMARK       I    between atoms: O3'_234  and  P_235 
REMARK       I    between atoms: P_235  and  O5'_238 
REMARK       I    between atoms: O5'_238  and  C5'_239 
REMARK       I    between atoms: C5'_239  and  C4'_240 
REMARK       I    between atoms: C1'_242  and  N9_243 
REMARK       I    between atoms: C2_246  and  N2_247 
REMARK       I    between atoms: C2'_257  and  O2'_258 
REMARK       I    between atoms: C3'_260  and  O3'_261 
REMARK       I    between atoms: O3'_261  and  P_262 
REMARK       I    between atoms: P_262  and  O5'_265 
REMARK       I    between atoms: O5'_265  and  C5'_266 
REMARK       I    between atoms: C5'_266  and  C4'_267 
REMARK       I    between atoms: C1'_269  and  N1_270 
REMARK       I    between atoms: C4_275  and  N4_276 
REMARK       I    between atoms: C2'_280  and  O2'_281 
REMARK       I    between atoms: C3'_283  and  O3'_284 
REMARK       I    between atoms: O3'_284  and  P_285 
REMARK       I    between atoms: P_285  and  O5'_288 
REMARK       I    between atoms: O5'_288  and  C5'_289 
REMARK       I    between atoms: C5'_289  and  C4'_290 
REMARK       I    between atoms: C1'_292  and  N1_293 
REMARK       I    between atoms: C4_298  and  N4_299 
REMARK       I    between atoms: C2'_303  and  O2'_304 
REMARK       I    between atoms: C3'_306  and  O3'_307 
REMARK       I    between atoms: O3'_307  and  P_308 
REMARK       I    between atoms: P_308  and  O5'_311 
REMARK       I    between atoms: O5'_311  and  C5'_312 
REMARK       I    between atoms: C5'_312  and  C4'_313 
REMARK       I    between atoms: C1'_315  and  N9_316 
REMARK       I    between atoms: C6_321  and  N6_322 
REMARK       I    between atoms: C2'_328  and  O2'_329 
REMARK       I    between atoms: C3'_331  and  O3'_332 
REMARK       I    between atoms: O3'_332  and  P_333 
REMARK       I    between atoms: P_333  and  O5'_336 
REMARK       I    between atoms: O5'_336  and  C5'_337 
REMARK       I    between atoms: C5'_337  and  C4'_338 
REMARK       I    between atoms: C1'_340  and  N9_341 
REMARK       I    between atoms: C6_346  and  N6_347 
REMARK       I    between atoms: C2'_353  and  O2'_354 
REMARK       I    between atoms: C3'_356  and  O3'_357 
REMARK       I    between atoms: O3'_357  and  P_358 
REMARK       I    between atoms: P_358  and  O5'_361 
REMARK       I    between atoms: O5'_361  and  C5'_362 
REMARK       I    between atoms: C5'_362  and  C4'_363 
REMARK       I    between atoms: C1'_365  and  N9_366 
REMARK       I    between atoms: C2_369  and  N2_370 
REMARK       I    between atoms: C2'_380  and  O2'_381 
REMARK       I    between atoms: C3'_383  and  O3'_384 
REMARK       I    between atoms: O3'_384  and  P_385 
REMARK       I    between atoms: P_385  and  O5'_388 
REMARK       I    between atoms: O5'_388  and  C5'_389 
REMARK       I    between atoms: C5'_389  and  C4'_390 
REMARK       I    between atoms: C1'_392  and  N1_393 
REMARK       I    between atoms: C2'_402  and  O2'_403 
REMARK       I    between atoms: C3'_405  and  O3'_406 
REMARK       I    between atoms: O3'_406  and  P_407 
REMARK       I    between atoms: P_407  and  O5'_410 
REMARK       I    between atoms: O5'_410  and  C5'_411 
REMARK       I    between atoms: C5'_411  and  C4'_412 
REMARK       I    between atoms: C1'_414  and  N9_415 
REMARK       I    between atoms: C2_418  and  N2_419 
REMARK       I    between atoms: C2'_429  and  O2'_430 
REMARK       I    between atoms: C3'_432  and  O3'_433 
REMARK       I    between atoms: O3'_433  and  P_434 
REMARK       I    between atoms: P_434  and  O5'_437 
REMARK       I    between atoms: O5'_437  and  C5'_438 
REMARK       I    between atoms: C5'_438  and  C4'_439 
REMARK       I    between atoms: C1'_441  and  N9_442 
REMARK       I    between atoms: C2_445  and  N2_446 
REMARK       I    between atoms: C2'_456  and  O2'_457 
REMARK       I    between atoms: C3'_459  and  O3'_460 
REMARK       I    between atoms: O3'_460  and  P_461 
REMARK       I    between atoms: P_461  and  O5'_464 
REMARK       I    between atoms: O5'_464  and  C5'_465 
REMARK       I    between atoms: C5'_465  and  C4'_466 
REMARK       I    between atoms: C1'_468  and  N1_469 
REMARK       I    between atoms: C4_474  and  N4_475 
REMARK       I    between atoms: C2'_479  and  O2'_480 
REMARK       I    between atoms: C3'_482  and  O3'_483 
REMARK       I    between atoms: O3'_483  and  P_484 
REMARK       I    between atoms: P_484  and  O5'_487 
REMARK       I    between atoms: O5'_487  and  C5'_488 
REMARK       I    between atoms: C5'_488  and  C4'_489 
REMARK       I    between atoms: C1'_491  and  N1_492 
REMARK       I    between atoms: C4_497  and  N4_498 
REMARK       I    between atoms: C2'_502  and  O2'_503 
REMARK       I    between atoms: C3'_505  and  O3'_506 
REMARK       I    between atoms: O3'_506  and  P_507 
REMARK       I    between atoms: P_507  and  O5'_510 
REMARK       I    between atoms: O5'_510  and  C5'_511 
REMARK       I    between atoms: C5'_511  and  C4'_512 
REMARK       I    between atoms: C1'_514  and  N9_515 
REMARK       I    between atoms: C6_520  and  N6_521 
REMARK       I    between atoms: C2'_527  and  O2'_528 
REMARK       I    between atoms: C3'_530  and  O3'_531 
REMARK       I    between atoms: O3'_531  and  P_532 
REMARK       I    between atoms: P_532  and  O5'_535 
REMARK       I    between atoms: O5'_535  and  C5'_536 
REMARK       I    between atoms: C5'_536  and  C4'_537 
REMARK       I    between atoms: C1'_539  and  N9_540 
REMARK       I    between atoms: C6_545  and  N6_546 
REMARK       I    between atoms: C2'_552  and  O2'_553 
REMARK       I    between atoms: C3'_555  and  O3'_556 
REMARK       I    between atoms: O3'_556  and  P_557 
REMARK       I    between atoms: P_557  and  O5'_560 
REMARK       I    between atoms: O5'_560  and  C5'_561 
REMARK       I    between atoms: C5'_561  and  C4'_562 
REMARK       I    between atoms: C1'_564  and  N9_565 
REMARK       I    between atoms: C6_570  and  N6_571 
REMARK       I    between atoms: C2'_577  and  O2'_578 
REMARK       I    between atoms: C3'_580  and  O3'_581 
REMARK       I    between atoms: O3'_581  and  P_582 
REMARK       I    between atoms: P_582  and  O5'_585 
REMARK       I    between atoms: O5'_585  and  C5'_586 
REMARK       I    between atoms: C5'_586  and  C4'_587 
REMARK       I    between atoms: C1'_589  and  N9_590 
REMARK       I    between atoms: C2_593  and  N2_594 
REMARK       I    between atoms: C2'_604  and  O2'_605 
REMARK       I    between atoms: C3'_607  and  O3'_608 
REMARK       I    between atoms: O3'_608  and  P_609 
REMARK       I    between atoms: P_609  and  O5'_612 
REMARK       I    between atoms: O5'_612  and  C5'_613 
REMARK       I    between atoms: C5'_613  and  C4'_614 
REMARK       I    between atoms: C1'_616  and  N1_617 
REMARK       I    between atoms: C4_622  and  N4_623 
REMARK       I    between atoms: C2'_627  and  O2'_628 
REMARK       I    between atoms: C3'_630  and  O3'_631 
REMARK       I    between atoms: O3'_631  and  P_632 
REMARK       I    between atoms: P_632  and  O5'_635 
REMARK       I    between atoms: O5'_635  and  C5'_636 
REMARK       I    between atoms: C5'_636  and  C4'_637 
REMARK       I    between atoms: C1'_639  and  N1_640 
REMARK       I    between atoms: C4_645  and  N4_646 
REMARK       I    between atoms: C2'_650  and  O2'_651 
REMARK       I    between atoms: C3'_653  and  O3'_654 
REMARK       I    between atoms: O3'_654  and  P_655 
REMARK       I    between atoms: P_655  and  O5'_658 
REMARK       I    between atoms: O5'_658  and  C5'_659 
REMARK       I    between atoms: C5'_659  and  C4'_660 
REMARK       I    between atoms: C1'_662  and  N1_663 
REMARK       I    between atoms: C4_668  and  N4_669 
REMARK       I    between atoms: C2'_673  and  O2'_674 
REMARK       I    between atoms: C3'_676  and  O3'_677 
REMARK       I    between atoms: O3'_677  and  P_678 
REMARK       I    between atoms: P_678  and  O5'_681 
REMARK       I    between atoms: O5'_681  and  C5'_682 
REMARK       I    between atoms: C5'_682  and  C4'_683 
REMARK       I    between atoms: C1'_685  and  N1_686 
REMARK       I    between atoms: C4_691  and  N4_692 
REMARK       I    between atoms: C2'_696  and  O2'_697 
REMARK       I    between atoms: C3'_699  and  O3'_700 
REMARK       I    between atoms: O3'_700  and  P_701 
REMARK       I    between atoms: P_701  and  O5'_704 
REMARK       I    between atoms: O5'_704  and  C5'_705 
REMARK       I    between atoms: C5'_705  and  C4'_706 
REMARK       I    between atoms: C1'_708  and  N1_709 
REMARK       I    between atoms: C4_714  and  N4_715 
REMARK       I    between atoms: C2'_719  and  O2'_720 
REMARK       I    between atoms: C3'_722  and  O3'_723 
REMARK       I    between atoms: O3'_723  and  P_724 
REMARK       I    between atoms: P_724  and  O5'_727 
REMARK       I    between atoms: O5'_727  and  C5'_728 
REMARK       I    between atoms: C5'_728  and  C4'_729 
REMARK       I    between atoms: C1'_731  and  N1_732 
REMARK       I    between atoms: C4_737  and  N4_738 
REMARK       I    between atoms: C2'_742  and  O2'_743 
REMARK       I    between atoms: C3'_745  and  O3'_746 
REMARK       I    between atoms: O3'_746  and  P_747 
REMARK       I    between atoms: P_747  and  O5'_750 
REMARK       I    between atoms: O5'_750  and  C5'_751 
REMARK       I    between atoms: C5'_751  and  C4'_752 
REMARK       I    between atoms: C1'_754  and  N1_755 
REMARK       I    between atoms: C4_760  and  N4_761 
REMARK       I    between atoms: C2'_765  and  O2'_766 
REMARK       I    between atoms: C3'_768  and  O3'_769 
ROOT
ATOM      1 'HO5   G A   1       1.564  61.250  20.845  1.00  0.00     0.209 HD
ATOM      2  O5'   G A   1       0.779  61.574  21.292  1.00  0.00    -0.398 OA
ATOM      3  C5'   G A   1       0.130  60.444  21.884  1.00  0.00     0.198 C 
ATOM      4  C4'   G A   1       1.020  59.223  21.834  1.00  0.00     0.180 C 
ATOM      5  O4'   G A   1       1.059  58.729  20.465  1.00  0.00    -0.353 OA
ATOM      6  C1'   G A   1       2.392  58.416  20.106  1.00  0.00     0.262 C 
ATOM      7  N9    G A   1       2.846  59.396  19.124  1.00  0.00    -0.293 N 
ATOM      8  C4    G A   1       4.055  59.400  18.469  1.00  0.00     0.187 A 
ATOM      9  N3    G A   1       5.042  58.492  18.620  1.00  0.00    -0.044 NA
ATOM     10  C2    G A   1       6.083  58.764  17.853  1.00  0.00     0.703 A 
ATOM     11  N2    G A   1       7.152  57.965  17.878  1.00  0.00    -0.233 N 
ATOM     12  H21   G A   1       7.154  57.160  18.487  1.00  0.00     0.174 HD
ATOM     13  H22   G A   1       7.953  58.168  17.298  1.00  0.00     0.174 HD
ATOM     14  N1    G A   1       6.152  59.839  17.004  1.00  0.00    -0.153 N 
ATOM     15  H1    G A   1       6.993  59.955  16.461  1.00  0.00     0.187 HD
ATOM     16  C6    G A   1       5.149  60.786  16.832  1.00  0.00     0.292 A 
ATOM     17  O6    G A   1       5.315  61.719  16.038  1.00  0.00    -0.265 OA
ATOM     18  C5    G A   1       4.024  60.509  17.651  1.00  0.00     0.173 A 
ATOM     19  N7    G A   1       2.821  61.190  17.788  1.00  0.00    -0.234 NA
ATOM     20  C8    G A   1       2.157  60.493  18.670  1.00  0.00     0.214 A 
ATOM     21  C2'   G A   1       3.212  58.406  21.396  1.00  0.00     0.199 C 
ATOM     22  O2'   G A   1       3.105  57.126  21.991  1.00  0.00    -0.388 OA
ATOM     23 'HO2   G A   1       3.937  56.954  22.432  1.00  0.00     0.210 HD
ATOM     24  C3'   G A   1       2.477  59.464  22.211  1.00  0.00     0.198 C 
ATOM     25  O3'   G A   1       2.684  59.316  23.615  1.00  0.00    -0.279 OA
ATOM     26  P     G A   2       3.710  60.290  24.380  1.00  0.00     0.408 P 
ATOM     27  OP1   G A   2       3.562  60.031  25.835  1.00  0.00    -0.624 OA
ATOM     28  OP2   G A   2       3.528  61.669  23.859  1.00  0.00    -0.624 OA
ATOM     29  O5'   G A   2       5.146  59.772  23.925  1.00  0.00    -0.287 OA
ATOM     30  C5'   G A   2       5.652  58.520  24.382  1.00  0.00     0.216 C 
ATOM     31  C4'   G A   2       6.898  58.148  23.612  1.00  0.00     0.180 C 
ATOM     32  O4'   G A   2       6.602  58.166  22.190  1.00  0.00    -0.353 OA
ATOM     33  C1'   G A   2       7.746  58.601  21.474  1.00  0.00     0.262 C 
ATOM     34  N9    G A   2       7.393  59.799  20.717  1.00  0.00    -0.293 N 
ATOM     35  C4    G A   2       8.176  60.429  19.782  1.00  0.00     0.187 A 
ATOM     36  N3    G A   2       9.416  60.057  19.406  1.00  0.00    -0.044 NA
ATOM     37  C2    G A   2       9.914  60.860  18.484  1.00  0.00     0.703 A 
ATOM     38  N2    G A   2      11.140  60.638  18.004  1.00  0.00    -0.233 N 
ATOM     39  H21   G A   2      11.671  59.854  18.354  1.00  0.00     0.174 HD
ATOM     40  H22   G A   2      11.536  61.250  17.305  1.00  0.00     0.174 HD
ATOM     41  N1    G A   2       9.249  61.942  17.967  1.00  0.00    -0.153 N 
ATOM     42  H1    G A   2       9.720  62.490  17.264  1.00  0.00     0.187 HD
ATOM     43  C6    G A   2       7.972  62.346  18.337  1.00  0.00     0.292 A 
ATOM     44  O6    G A   2       7.462  63.338  17.803  1.00  0.00    -0.265 OA
ATOM     45  C5    G A   2       7.423  61.493  19.331  1.00  0.00     0.173 A 
ATOM     46  N7    G A   2       6.193  61.534  19.975  1.00  0.00    -0.234 NA
ATOM     47  C8    G A   2       6.223  60.514  20.788  1.00  0.00     0.214 A 
ATOM     48  C2'   G A   2       8.867  58.829  22.488  1.00  0.00     0.199 C 
ATOM     49  O2'   G A   2       9.619  57.634  22.606  1.00  0.00    -0.388 OA
ATOM     50 'HO2   G A   2       9.857  57.550  23.528  1.00  0.00     0.210 HD
ATOM     51  C3'   G A   2       8.069  59.107  23.754  1.00  0.00     0.198 C 
ATOM     52  O3'   G A   2       8.822  58.858  24.938  1.00  0.00    -0.279 OA
ATOM     53  P     G A   3       9.646  60.057  25.628  1.00  0.00     0.408 P 
ATOM     54  OP1   G A   3      10.353  59.489  26.804  1.00  0.00    -0.624 OA
ATOM     55  OP2   G A   3       8.728  61.210  25.811  1.00  0.00    -0.624 OA
ATOM     56  O5'   G A   3      10.737  60.455  24.536  1.00  0.00    -0.287 OA
ATOM     57  C5'   G A   3      11.731  59.522  24.116  1.00  0.00     0.216 C 
ATOM     58  C4'   G A   3      12.907  60.250  23.502  1.00  0.00     0.180 C 
ATOM     59  O4'   G A   3      12.700  60.360  22.066  1.00  0.00    -0.353 OA
ATOM     60  C1'   G A   3      13.169  61.620  21.612  1.00  0.00     0.262 C 
ATOM     61  N9    G A   3      12.030  62.385  21.112  1.00  0.00    -0.293 N 
ATOM     62  C4    G A   3      12.076  63.432  20.223  1.00  0.00     0.187 A 
ATOM     63  N3    G A   3      13.188  63.937  19.650  1.00  0.00    -0.044 NA
ATOM     64  C2    G A   3      12.911  64.943  18.840  1.00  0.00     0.703 A 
ATOM     65  N2    G A   3      13.897  65.562  18.188  1.00  0.00    -0.233 N 
ATOM     66  H21   G A   3      14.848  65.252  18.321  1.00  0.00     0.174 HD
ATOM     67  H22   G A   3      13.692  66.331  17.566  1.00  0.00     0.174 HD
ATOM     68  N1    G A   3      11.645  65.418  18.610  1.00  0.00    -0.153 N 
ATOM     69  H1    G A   3      11.544  66.192  17.975  1.00  0.00     0.187 HD
ATOM     70  C6    G A   3      10.485  64.914  19.187  1.00  0.00     0.292 A 
ATOM     71  O6    G A   3       9.391  65.416  18.906  1.00  0.00    -0.265 OA
ATOM     72  C5    G A   3      10.766  63.831  20.061  1.00  0.00     0.173 A 
ATOM     73  N7    G A   3       9.914  63.051  20.830  1.00  0.00    -0.234 NA
ATOM     74  C8    G A   3      10.707  62.210  21.434  1.00  0.00     0.214 A 
ATOM     75  C2'   G A   3      13.878  62.287  22.789  1.00  0.00     0.199 C 
ATOM     76  O2'   G A   3      15.233  61.876  22.798  1.00  0.00    -0.388 OA
ATOM     77 'HO2   G A   3      15.446  61.662  23.707  1.00  0.00     0.210 HD
ATOM     78  C3'   G A   3      13.112  61.687  23.960  1.00  0.00     0.198 C 
ATOM     79  O3'   G A   3      13.838  61.756  25.184  1.00  0.00    -0.279 OA
ATOM     80  P     G A   4      13.692  63.051  26.127  1.00  0.00     0.408 P 
ATOM     81  OP1   G A   4      14.518  62.810  27.337  1.00  0.00    -0.624 OA
ATOM     82  OP2   G A   4      12.249  63.366  26.275  1.00  0.00    -0.624 OA
ATOM     83  O5'   G A   4      14.376  64.219  25.285  1.00  0.00    -0.287 OA
ATOM     84  C5'   G A   4      15.763  64.171  24.954  1.00  0.00     0.216 C 
ATOM     85  C4'   G A   4      16.150  65.383  24.141  1.00  0.00     0.180 C 
ATOM     86  O4'   G A   4      15.499  65.318  22.845  1.00  0.00    -0.353 OA
ATOM     87  C1'   G A   4      15.207  66.630  22.397  1.00  0.00     0.262 C 
ATOM     88  N9    G A   4      13.773  66.723  22.140  1.00  0.00    -0.293 N 
ATOM     89  C4    G A   4      13.147  67.659  21.356  1.00  0.00     0.187 A 
ATOM     90  N3    G A   4      13.749  68.665  20.688  1.00  0.00    -0.044 NA
ATOM     91  C2    G A   4      12.882  69.403  20.021  1.00  0.00     0.703 A 
ATOM     92  N2    G A   4      13.310  70.448  19.310  1.00  0.00    -0.233 N 
ATOM     93  H21   G A   4      14.298  70.658  19.291  1.00  0.00     0.174 HD
ATOM     94  H22   G A   4      12.656  71.022  18.797  1.00  0.00     0.174 HD
ATOM     95  N1    G A   4      11.530  69.173  20.005  1.00  0.00    -0.153 N 
ATOM     96  H1    G A   4      10.957  69.797  19.460  1.00  0.00     0.187 HD
ATOM     97  C6    G A   4      10.886  68.145  20.682  1.00  0.00     0.292 A 
ATOM     98  O6    G A   4       9.660  68.026  20.595  1.00  0.00    -0.265 OA
ATOM     99  C5    G A   4      11.805  67.344  21.409  1.00  0.00     0.173 A 
ATOM    100  N7    G A   4      11.591  66.232  22.212  1.00  0.00    -0.234 NA
ATOM    101  C8    G A   4      12.785  65.901  22.625  1.00  0.00     0.214 A 
ATOM    102  C2'   G A   4      15.701  67.609  23.463  1.00  0.00     0.199 C 
ATOM    103  O2'   G A   4      17.014  68.018  23.125  1.00  0.00    -0.388 OA
ATOM    104 'HO2   G A   4      17.542  67.920  23.916  1.00  0.00     0.210 HD
ATOM    105  C3'   G A   4      15.703  66.723  24.703  1.00  0.00     0.198 C 
ATOM    106  O3'   G A   4      16.593  67.197  25.710  1.00  0.00    -0.279 OA
ATOM    107  P     G A   5      16.070  68.254  26.805  1.00  0.00     0.408 P 
ATOM    108  OP1   G A   5      17.246  68.679  27.605  1.00  0.00    -0.624 OA
ATOM    109  OP2   G A   5      14.888  67.671  27.491  1.00  0.00    -0.624 OA
ATOM    110  O5'   G A   5      15.583  69.499  25.939  1.00  0.00    -0.287 OA
ATOM    111  C5'   G A   5      16.512  70.290  25.200  1.00  0.00     0.216 C 
ATOM    112  C4'   G A   5      15.810  71.473  24.576  1.00  0.00     0.180 C 
ATOM    113  O4'   G A   5      14.928  71.005  23.527  1.00  0.00    -0.353 OA
ATOM    114  C1'   G A   5      13.831  71.891  23.404  1.00  0.00     0.262 C 
ATOM    115  N9    G A   5      12.601  71.105  23.425  1.00  0.00    -0.293 N 
ATOM    116  C4    G A   5      11.390  71.473  22.892  1.00  0.00     0.187 A 
ATOM    117  N3    G A   5      11.124  72.628  22.248  1.00  0.00    -0.044 NA
ATOM    118  C2    G A   5       9.866  72.697  21.855  1.00  0.00     0.703 A 
ATOM    119  N2    G A   5       9.433  73.776  21.200  1.00  0.00    -0.233 N 
ATOM    120  H21   G A   5      10.073  74.532  21.010  1.00  0.00     0.174 HD
ATOM    121  H22   G A   5       8.468  73.839  20.904  1.00  0.00     0.174 HD
ATOM    122  N1    G A   5       8.938  71.713  22.074  1.00  0.00    -0.153 N 
ATOM    123  H1    G A   5       8.002  71.866  21.734  1.00  0.00     0.187 HD
ATOM    124  C6    G A   5       9.186  70.513  22.732  1.00  0.00     0.292 A 
ATOM    125  O6    G A   5       8.273  69.690  22.872  1.00  0.00    -0.265 OA
ATOM    126  C5    G A   5      10.536  70.424  23.163  1.00  0.00     0.173 A 
ATOM    127  N7    G A   5      11.199  69.414  23.848  1.00  0.00    -0.234 NA
ATOM    128  C8    G A   5      12.418  69.862  23.979  1.00  0.00     0.214 A 
ATOM    129  C2'   G A   5      13.916  72.922  24.534  1.00  0.00     0.199 C 
ATOM    130  O2'   G A   5      14.455  74.119  24.006  1.00  0.00    -0.388 OA
ATOM    131 'HO2   G A   5      13.847  74.822  24.238  1.00  0.00     0.210 HD
ATOM    132  C3'   G A   5      14.891  72.253  25.503  1.00  0.00     0.198 C 
ATOM    133  O3'   G A   5      15.626  73.194  26.281  1.00  0.00    -0.279 OA
ATOM    134  P     G A   6      14.889  74.016  27.452  1.00  0.00     0.408 P 
ATOM    135  OP1   G A   6      15.933  74.804  28.157  1.00  0.00    -0.624 OA
ATOM    136  OP2   G A   6      14.036  73.075  28.223  1.00  0.00    -0.624 OA
ATOM    137  O5'   G A   6      13.948  75.039  26.673  1.00  0.00    -0.287 OA
ATOM    138  C5'   G A   6      12.575  75.197  27.027  1.00  0.00     0.216 C 
ATOM    139  C4'   G A   6      11.851  75.981  25.958  1.00  0.00     0.180 C 
ATOM    140  O4'   G A   6      11.542  75.087  24.853  1.00  0.00    -0.353 OA
ATOM    141  C1'   G A   6      10.230  75.340  24.384  1.00  0.00     0.262 C 
ATOM    142  N9    G A   6       9.398  74.178  24.689  1.00  0.00    -0.293 N 
ATOM    143  C4    G A   6       8.057  74.043  24.426  1.00  0.00     0.187 A 
ATOM    144  N3    G A   6       7.270  74.964  23.833  1.00  0.00    -0.044 NA
ATOM    145  C2    G A   6       6.023  74.546  23.719  1.00  0.00     0.703 A 
ATOM    146  N2    G A   6       5.105  75.337  23.155  1.00  0.00    -0.233 N 
ATOM    147  H21   G A   6       5.376  76.250  22.821  1.00  0.00     0.174 HD
ATOM    148  H22   G A   6       4.148  75.026  23.071  1.00  0.00     0.174 HD
ATOM    149  N1    G A   6       5.582  73.322  24.149  1.00  0.00    -0.153 N 
ATOM    150  H1    G A   6       4.606  73.104  24.013  1.00  0.00     0.187 HD
ATOM    151  C6    G A   6       6.372  72.356  24.760  1.00  0.00     0.292 A 
ATOM    152  O6    G A   6       5.870  71.280  25.106  1.00  0.00    -0.265 OA
ATOM    153  C5    G A   6       7.716  72.791  24.892  1.00  0.00     0.173 A 
ATOM    154  N7    G A   6       8.822  72.151  25.438  1.00  0.00    -0.234 NA
ATOM    155  C8    G A   6       9.793  73.010  25.296  1.00  0.00     0.214 A 
ATOM    156  C2'   G A   6       9.751  76.628  25.052  1.00  0.00     0.199 C 
ATOM    157  O2'   G A   6      10.175  77.728  24.268  1.00  0.00    -0.388 OA
ATOM    158 'HO2   G A   6      10.280  78.467  24.868  1.00  0.00     0.210 HD
ATOM    159  C3'   G A   6      10.507  76.566  26.374  1.00  0.00     0.198 C 
ATOM    160  O3'   G A   6      10.654  77.850  26.977  1.00  0.00    -0.279 OA
ATOM    161  P     G A   7       9.635  78.312  28.134  1.00  0.00     0.408 P 
ATOM    162  OP1   G A   7      10.090  79.643  28.614  1.00  0.00    -0.624 OA
ATOM    163  OP2   G A   7       9.483  77.196  29.102  1.00  0.00    -0.624 OA
ATOM    164  O5'   G A   7       8.248  78.507  27.374  1.00  0.00    -0.287 OA
ATOM    165  C5'   G A   7       8.077  79.542  26.406  1.00  0.00     0.216 C 
ATOM    166  C4'   G A   7       6.671  79.516  25.853  1.00  0.00     0.180 C 
ATOM    167  O4'   G A   7       6.426  78.221  25.244  1.00  0.00    -0.353 OA
ATOM    168  C1'   G A   7       5.071  77.854  25.435  1.00  0.00     0.262 C 
ATOM    169  N9    G A   7       5.035  76.574  26.136  1.00  0.00    -0.293 N 
ATOM    170  C4    G A   7       3.936  75.769  26.308  1.00  0.00     0.187 A 
ATOM    171  N3    G A   7       2.689  76.026  25.863  1.00  0.00    -0.044 NA
ATOM    172  C2    G A   7       1.844  75.062  26.180  1.00  0.00     0.703 A 
ATOM    173  N2    G A   7       0.564  75.156  25.814  1.00  0.00    -0.233 N 
ATOM    174  H21   G A   7       0.256  75.967  25.297  1.00  0.00     0.174 HD
ATOM    175  H22   G A   7      -0.088  74.423  26.050  1.00  0.00     0.174 HD
ATOM    176  N1    G A   7       2.192  73.935  26.878  1.00  0.00    -0.153 N 
ATOM    177  H1    G A   7       1.467  73.261  27.067  1.00  0.00     0.187 HD
ATOM    178  C6    G A   7       3.468  73.647  27.348  1.00  0.00     0.292 A 
ATOM    179  O6    G A   7       3.672  72.597  27.969  1.00  0.00    -0.265 OA
ATOM    180  C5    G A   7       4.390  74.675  27.015  1.00  0.00     0.173 A 
ATOM    181  N7    G A   7       5.747  74.792  27.285  1.00  0.00    -0.234 NA
ATOM    182  C8    G A   7       6.085  75.932  26.747  1.00  0.00     0.214 A 
ATOM    183  C2'   G A   7       4.378  78.989  26.192  1.00  0.00     0.199 C 
ATOM    184  O2'   G A   7       3.773  79.855  25.249  1.00  0.00    -0.388 OA
ATOM    185 'HO2   G A   7       3.583  80.675  25.705  1.00  0.00     0.210 HD
ATOM    186  C3'   G A   7       5.559  79.664  26.881  1.00  0.00     0.198 C 
ATOM    187  O3'   G A   7       5.304  81.034  27.179  1.00  0.00    -0.279 OA
ATOM    188  P     U A   8       4.730  81.445  28.624  1.00  0.00     0.408 P 
ATOM    189  OP1   U A   8       4.478  82.907  28.601  1.00  0.00    -0.624 OA
ATOM    190  OP2   U A   8       5.621  80.870  29.665  1.00  0.00    -0.624 OA
ATOM    191  O5'   U A   8       3.324  80.700  28.708  1.00  0.00    -0.287 OA
ATOM    192  C5'   U A   8       2.189  81.187  27.993  1.00  0.00     0.216 C 
ATOM    193  C4'   U A   8       0.992  80.303  28.251  1.00  0.00     0.180 C 
ATOM    194  O4'   U A   8       1.279  78.967  27.754  1.00  0.00    -0.353 OA
ATOM    195  C1'   U A   8       0.786  78.000  28.663  1.00  0.00     0.264 C 
ATOM    196  N1    U A   8       1.928  77.262  29.223  1.00  0.00    -0.280 N 
ATOM    197  C6    U A   8       3.165  77.850  29.353  1.00  0.00     0.104 A 
ATOM    198  C2    U A   8       1.716  75.955  29.617  1.00  0.00     0.331 A 
ATOM    199  O2    U A   8       0.636  75.400  29.514  1.00  0.00    -0.246 OA
ATOM    200  N3    U A   8       2.815  75.321  30.137  1.00  0.00    -0.275 N 
ATOM    201  H3    U A   8       2.694  74.364  30.429  1.00  0.00     0.173 HD
ATOM    202  C4    U A   8       4.076  75.848  30.297  1.00  0.00     0.250 A 
ATOM    203  O4    U A   8       4.960  75.153  30.798  1.00  0.00    -0.268 OA
ATOM    204  C5    U A   8       4.216  77.201  29.862  1.00  0.00     0.092 A 
ATOM    205  C2'   U A   8      -0.039  78.740  29.716  1.00  0.00     0.199 C 
ATOM    206  O2'   U A   8      -1.377  78.831  29.264  1.00  0.00    -0.388 OA
ATOM    207 'HO2   U A   8      -1.629  79.751  29.345  1.00  0.00     0.210 HD
ATOM    208  C3'   U A   8       0.638  80.104  29.717  1.00  0.00     0.198 C 
ATOM    209  O3'   U A   8      -0.219  81.139  30.192  1.00  0.00    -0.279 OA
ATOM    210  P     A A   9      -0.355  81.401  31.772  1.00  0.00     0.408 P 
ATOM    211  OP1   A A   9      -1.127  82.657  31.948  1.00  0.00    -0.624 OA
ATOM    212  OP2   A A   9       0.991  81.275  32.386  1.00  0.00    -0.624 OA
ATOM    213  O5'   A A   9      -1.251  80.186  32.285  1.00  0.00    -0.287 OA
ATOM    214  C5'   A A   9      -2.642  80.112  31.976  1.00  0.00     0.216 C 
ATOM    215  C4'   A A   9      -3.350  79.234  32.981  1.00  0.00     0.180 C 
ATOM    216  O4'   A A   9      -3.275  77.849  32.532  1.00  0.00    -0.353 OA
ATOM    217  C1'   A A   9      -2.950  77.008  33.628  1.00  0.00     0.262 C 
ATOM    218  N9    A A   9      -1.579  76.527  33.452  1.00  0.00    -0.294 N 
ATOM    219  C4    A A   9      -1.142  75.234  33.609  1.00  0.00     0.167 A 
ATOM    220  N3    A A   9      -1.875  74.159  33.948  1.00  0.00    -0.222 NA
ATOM    221  C2    A A   9      -1.112  73.069  34.005  1.00  0.00     0.237 A 
ATOM    222  N1    A A   9       0.201  72.943  33.779  1.00  0.00    -0.222 NA
ATOM    223  C6    A A   9       0.908  74.041  33.440  1.00  0.00     0.155 A 
ATOM    224  N6    A A   9       2.216  73.913  33.216  1.00  0.00    -0.382 N 
ATOM    225  H61   A A   9       2.768  74.718  32.961  1.00  0.00     0.157 HD
ATOM    226  H62   A A   9       2.648  73.005  33.295  1.00  0.00     0.157 HD
ATOM    227  C5    A A   9       0.215  75.260  33.345  1.00  0.00     0.149 A 
ATOM    228  N7    A A   9       0.628  76.547  33.027  1.00  0.00    -0.236 NA
ATOM    229  C8    A A   9      -0.469  77.258  33.104  1.00  0.00     0.214 A 
ATOM    230  C2'   A A   9      -3.159  77.843  34.888  1.00  0.00     0.199 C 
ATOM    231  O2'   A A   9      -4.532  77.748  35.217  1.00  0.00    -0.388 OA
ATOM    232 'HO2   A A   9      -5.027  78.068  34.464  1.00  0.00     0.210 HD
ATOM    233  C3'   A A   9      -2.737  79.216  34.376  1.00  0.00     0.198 C 
ATOM    234  O3'   A A   9      -3.147  80.343  35.167  1.00  0.00    -0.279 OA
ATOM    235  P     G A  10      -4.640  80.440  35.767  1.00  0.00     0.408 P 
ATOM    236  OP1   G A  10      -5.606  79.867  34.794  1.00  0.00    -0.624 OA
ATOM    237  OP2   G A  10      -4.824  81.839  36.232  1.00  0.00    -0.624 OA
ATOM    238  O5'   G A  10      -4.596  79.511  37.062  1.00  0.00    -0.287 OA
ATOM    239  C5'   G A  10      -3.484  79.549  37.955  1.00  0.00     0.216 C 
ATOM    240  C4'   G A  10      -3.205  78.168  38.500  1.00  0.00     0.180 C 
ATOM    241  O4'   G A  10      -2.476  77.403  37.502  1.00  0.00    -0.353 OA
ATOM    242  C1'   G A  10      -1.496  76.600  38.135  1.00  0.00     0.262 C 
ATOM    243  N9    G A  10      -0.177  77.053  37.705  1.00  0.00    -0.293 N 
ATOM    244  C4    G A  10       0.934  76.270  37.518  1.00  0.00     0.187 A 
ATOM    245  N3    G A  10       1.000  74.933  37.685  1.00  0.00    -0.044 NA
ATOM    246  C2    G A  10       2.208  74.464  37.440  1.00  0.00     0.703 A 
ATOM    247  N2    G A  10       2.447  73.153  37.555  1.00  0.00    -0.233 N 
ATOM    248  H21   G A  10       1.695  72.539  37.828  1.00  0.00     0.174 HD
ATOM    249  H22   G A  10       3.371  72.784  37.378  1.00  0.00     0.174 HD
ATOM    250  N1    G A  10       3.272  75.241  37.064  1.00  0.00    -0.153 N 
ATOM    251  H1    G A  10       4.156  74.779  36.906  1.00  0.00     0.187 HD
ATOM    252  C6    G A  10       3.231  76.620  36.883  1.00  0.00     0.292 A 
ATOM    253  O6    G A  10       4.252  77.226  36.539  1.00  0.00    -0.265 OA
ATOM    254  C5    G A  10       1.936  77.140  37.141  1.00  0.00     0.173 A 
ATOM    255  N7    G A  10       1.461  78.444  37.083  1.00  0.00    -0.234 NA
ATOM    256  C8    G A  10       0.205  78.342  37.421  1.00  0.00     0.214 A 
ATOM    257  C2'   G A  10      -1.716  76.720  39.643  1.00  0.00     0.199 C 
ATOM    258  O2'   G A  10      -2.649  75.735  40.050  1.00  0.00    -0.388 OA
ATOM    259 'HO2   G A  10      -3.457  76.199  40.271  1.00  0.00     0.210 HD
ATOM    260  C3'   G A  10      -2.312  78.118  39.734  1.00  0.00     0.198 C 
ATOM    261  O3'   G A  10      -3.052  78.320  40.935  1.00  0.00    -0.279 OA
ATOM    262  P     C A  11      -2.357  79.055  42.186  1.00  0.00     0.408 P 
ATOM    263  OP1   C A  11      -3.400  79.243  43.226  1.00  0.00    -0.624 OA
ATOM    264  OP2   C A  11      -1.606  80.234  41.682  1.00  0.00    -0.624 OA
ATOM    265  O5'   C A  11      -1.302  77.990  42.724  1.00  0.00    -0.287 OA
ATOM    266  C5'   C A  11      -1.732  76.750  43.286  1.00  0.00     0.216 C 
ATOM    267  C4'   C A  11      -0.549  75.979  43.828  1.00  0.00     0.180 C 
ATOM    268  O4'   C A  11       0.294  75.563  42.719  1.00  0.00    -0.353 OA
ATOM    269  C1'   C A  11       1.660  75.687  43.080  1.00  0.00     0.264 C 
ATOM    270  N1    C A  11       2.273  76.720  42.229  1.00  0.00    -0.278 N 
ATOM    271  C6    C A  11       1.505  77.678  41.629  1.00  0.00     0.102 A 
ATOM    272  C2    C A  11       3.659  76.706  42.038  1.00  0.00     0.352 A 
ATOM    273  O2    C A  11       4.336  75.830  42.596  1.00  0.00    -0.244 OA
ATOM    274  N3    C A  11       4.228  77.648  41.254  1.00  0.00    -0.177 NA
ATOM    275  C4    C A  11       3.468  78.578  40.673  1.00  0.00     0.128 A 
ATOM    276  N4    C A  11       4.073  79.488  39.910  1.00  0.00    -0.384 N 
ATOM    277  H41   C A  11       3.531  80.207  39.454  1.00  0.00     0.157 HD
ATOM    278  H42   C A  11       5.075  79.453  39.786  1.00  0.00     0.157 HD
ATOM    279  C5    C A  11       2.055  78.618  40.849  1.00  0.00     0.067 A 
ATOM    280  C2'   C A  11       1.701  76.011  44.572  1.00  0.00     0.199 C 
ATOM    281  O2'   C A  11       1.696  74.797  45.299  1.00  0.00    -0.388 OA
ATOM    282 'HO2   C A  11       0.900  74.794  45.831  1.00  0.00     0.210 HD
ATOM    283  C3'   C A  11       0.386  76.760  44.742  1.00  0.00     0.198 C 
ATOM    284  O3'   C A  11      -0.074  76.759  46.091  1.00  0.00    -0.279 OA
ATOM    285  P     C A  12       0.507  77.838  47.134  1.00  0.00     0.408 P 
ATOM    286  OP1   C A  12      -0.204  77.636  48.422  1.00  0.00    -0.624 OA
ATOM    287  OP2   C A  12       0.490  79.175  46.488  1.00  0.00    -0.624 OA
ATOM    288  O5'   C A  12       2.029  77.405  47.333  1.00  0.00    -0.287 OA
ATOM    289  C5'   C A  12       2.364  76.137  47.894  1.00  0.00     0.216 C 
ATOM    290  C4'   C A  12       3.852  75.895  47.786  1.00  0.00     0.180 C 
ATOM    291  O4'   C A  12       4.243  75.921  46.387  1.00  0.00    -0.353 OA
ATOM    292  C1'   C A  12       5.533  76.495  46.262  1.00  0.00     0.264 C 
ATOM    293  N1    C A  12       5.427  77.698  45.420  1.00  0.00    -0.278 N 
ATOM    294  C6    C A  12       4.262  78.411  45.355  1.00  0.00     0.102 A 
ATOM    295  C2    C A  12       6.542  78.105  44.683  1.00  0.00     0.352 A 
ATOM    296  O2    C A  12       7.585  77.441  44.759  1.00  0.00    -0.244 OA
ATOM    297  N3    C A  12       6.457  79.208  43.908  1.00  0.00    -0.177 NA
ATOM    298  C4    C A  12       5.314  79.894  43.849  1.00  0.00     0.128 A 
ATOM    299  N4    C A  12       5.277  80.973  43.069  1.00  0.00    -0.384 N 
ATOM    300  H41   C A  12       4.431  81.519  42.997  1.00  0.00     0.157 HD
ATOM    301  H42   C A  12       6.101  81.243  42.549  1.00  0.00     0.157 HD
ATOM    302  C5    C A  12       4.160  79.503  44.588  1.00  0.00     0.067 A 
ATOM    303  C2'   C A  12       6.049  76.776  47.673  1.00  0.00     0.199 C 
ATOM    304  O2'   C A  12       6.763  75.642  48.129  1.00  0.00    -0.388 OA
ATOM    305 'HO2   C A  12       6.424  75.437  49.001  1.00  0.00     0.210 HD
ATOM    306  C3'   C A  12       4.741  76.947  48.435  1.00  0.00     0.198 C 
ATOM    307  O3'   C A  12       4.891  76.724  49.834  1.00  0.00    -0.279 OA
ATOM    308  P     A A  13       5.217  77.962  50.809  1.00  0.00     0.408 P 
ATOM    309  OP1   A A  13       5.249  77.432  52.197  1.00  0.00    -0.624 OA
ATOM    310  OP2   A A  13       4.301  79.080  50.473  1.00  0.00    -0.624 OA
ATOM    311  O5'   A A  13       6.698  78.390  50.407  1.00  0.00    -0.287 OA
ATOM    312  C5'   A A  13       7.794  77.496  50.589  1.00  0.00     0.216 C 
ATOM    313  C4'   A A  13       9.063  78.104  50.039  1.00  0.00     0.180 C 
ATOM    314  O4'   A A  13       8.975  78.173  48.592  1.00  0.00    -0.353 OA
ATOM    315  C1'   A A  13       9.705  79.296  48.127  1.00  0.00     0.262 C 
ATOM    316  N9    A A  13       8.806  80.129  47.327  1.00  0.00    -0.294 N 
ATOM    317  C4    A A  13       9.175  80.972  46.308  1.00  0.00     0.167 A 
ATOM    318  N3    A A  13      10.418  81.198  45.848  1.00  0.00    -0.222 NA
ATOM    319  C2    A A  13      10.396  82.080  44.851  1.00  0.00     0.237 A 
ATOM    320  N1    A A  13       9.351  82.711  44.302  1.00  0.00    -0.222 NA
ATOM    321  C6    A A  13       8.116  82.458  44.784  1.00  0.00     0.155 A 
ATOM    322  N6    A A  13       7.077  83.083  44.231  1.00  0.00    -0.382 N 
ATOM    323  H61   A A  13       6.143  82.909  44.573  1.00  0.00     0.157 HD
ATOM    324  H62   A A  13       7.234  83.732  43.474  1.00  0.00     0.157 HD
ATOM    325  C5    A A  13       8.003  81.542  45.846  1.00  0.00     0.149 A 
ATOM    326  N7    A A  13       6.912  81.069  46.562  1.00  0.00    -0.236 NA
ATOM    327  C8    A A  13       7.440  80.237  47.427  1.00  0.00     0.214 A 
ATOM    328  C2'   A A  13      10.286  80.012  49.348  1.00  0.00     0.199 C 
ATOM    329  O2'   A A  13      11.601  79.539  49.567  1.00  0.00    -0.388 OA
ATOM    330 'HO2   A A  13      11.657  79.312  50.496  1.00  0.00     0.210 HD
ATOM    331  C3'   A A  13       9.346  79.541  50.451  1.00  0.00     0.198 C 
ATOM    332  O3'   A A  13       9.942  79.612  51.743  1.00  0.00    -0.279 OA
ATOM    333  P     A A  14       9.861  80.979  52.588  1.00  0.00     0.408 P 
ATOM    334  OP1   A A  14      10.376  80.686  53.950  1.00  0.00    -0.624 OA
ATOM    335  OP2   A A  14       8.502  81.555  52.426  1.00  0.00    -0.624 OA
ATOM    336  O5'   A A  14      10.901  81.945  51.862  1.00  0.00    -0.287 OA
ATOM    337  C5'   A A  14      12.291  81.625  51.809  1.00  0.00     0.216 C 
ATOM    338  C4'   A A  14      12.968  82.407  50.707  1.00  0.00     0.180 C 
ATOM    339  O4'   A A  14      12.075  82.473  49.558  1.00  0.00    -0.353 OA
ATOM    340  C1'   A A  14      11.733  83.820  49.294  1.00  0.00     0.262 C 
ATOM    341  N9    A A  14      10.322  83.871  48.914  1.00  0.00    -0.294 N 
ATOM    342  C4    A A  14       9.798  84.485  47.802  1.00  0.00     0.167 A 
ATOM    343  N3    A A  14      10.467  85.155  46.848  1.00  0.00    -0.222 NA
ATOM    344  C2    A A  14       9.630  85.616  45.922  1.00  0.00     0.237 A 
ATOM    345  N1    A A  14       8.298  85.492  45.848  1.00  0.00    -0.222 NA
ATOM    346  C6    A A  14       7.657  84.812  46.823  1.00  0.00     0.155 A 
ATOM    347  N6    A A  14       6.332  84.688  46.748  1.00  0.00    -0.382 N 
ATOM    348  H61   A A  14       5.834  84.183  47.466  1.00  0.00     0.157 HD
ATOM    349  H62   A A  14       5.830  85.103  45.976  1.00  0.00     0.157 HD
ATOM    350  C5    A A  14       8.433  84.273  47.862  1.00  0.00     0.149 A 
ATOM    351  N7    A A  14       8.100  83.538  48.992  1.00  0.00    -0.236 NA
ATOM    352  C8    A A  14       9.253  83.326  49.579  1.00  0.00     0.214 A 
ATOM    353  C2'   A A  14      12.066  84.608  50.558  1.00  0.00     0.199 C 
ATOM    354  O2'   A A  14      12.380  85.941  50.197  1.00  0.00    -0.388 OA
ATOM    355 'HO2   A A  14      13.197  85.911  49.696  1.00  0.00     0.210 HD
ATOM    356  C3'   A A  14      13.297  83.858  51.049  1.00  0.00     0.198 C 
ATOM    357  O3'   A A  14      14.489  84.283  50.392  1.00  0.00    -0.279 OA
ATOM    358  P     G A  15      15.597  85.119  51.204  1.00  0.00     0.408 P 
ATOM    359  OP1   G A  15      16.665  84.165  51.598  1.00  0.00    -0.624 OA
ATOM    360  OP2   G A  15      14.916  85.928  52.246  1.00  0.00    -0.624 OA
ATOM    361  O5'   G A  15      16.204  86.114  50.116  1.00  0.00    -0.287 OA
ATOM    362  C5'   G A  15      16.640  85.639  48.840  1.00  0.00     0.216 C 
ATOM    363  C4'   G A  15      15.450  85.399  47.936  1.00  0.00     0.180 C 
ATOM    364  O4'   G A  15      14.408  86.364  48.255  1.00  0.00    -0.353 OA
ATOM    365  C1'   G A  15      13.789  86.813  47.062  1.00  0.00     0.262 C 
ATOM    366  N9    G A  15      14.074  88.237  46.904  1.00  0.00    -0.293 N 
ATOM    367  C4    G A  15      13.352  89.136  46.158  1.00  0.00     0.187 A 
ATOM    368  N3    G A  15      12.242  88.863  45.440  1.00  0.00    -0.044 NA
ATOM    369  C2    G A  15      11.775  89.935  44.828  1.00  0.00     0.703 A 
ATOM    370  N2    G A  15      10.678  89.840  44.072  1.00  0.00    -0.233 N 
ATOM    371  H21   G A  15      10.218  88.946  43.979  1.00  0.00     0.174 HD
ATOM    372  H22   G A  15      10.315  90.650  43.591  1.00  0.00     0.174 HD
ATOM    373  N1    G A  15      12.347  91.178  44.909  1.00  0.00    -0.153 N 
ATOM    374  H1    G A  15      11.911  91.931  44.401  1.00  0.00     0.187 HD
ATOM    375  C6    G A  15      13.488  91.485  45.641  1.00  0.00     0.292 A 
ATOM    376  O6    G A  15      13.922  92.643  45.645  1.00  0.00    -0.265 OA
ATOM    377  C5    G A  15      14.004  90.343  46.307  1.00  0.00     0.173 A 
ATOM    378  N7    G A  15      15.112  90.204  47.133  1.00  0.00    -0.234 NA
ATOM    379  C8    G A  15      15.111  88.941  47.463  1.00  0.00     0.214 A 
ATOM    380  C2'   G A  15      14.326  85.953  45.919  1.00  0.00     0.199 C 
ATOM    381  O2'   G A  15      13.513  84.800  45.794  1.00  0.00    -0.388 OA
ATOM    382 'HO2   G A  15      14.099  84.043  45.836  1.00  0.00     0.210 HD
ATOM    383  C3'   G A  15      15.708  85.596  46.448  1.00  0.00     0.198 C 
ATOM    384  O3'   G A  15      16.235  84.418  45.842  1.00  0.00    -0.279 OA
ATOM    385  P     U A  16      16.902  84.502  44.380  1.00  0.00     0.408 P 
ATOM    386  OP1   U A  16      16.793  83.153  43.771  1.00  0.00    -0.624 OA
ATOM    387  OP2   U A  16      18.238  85.138  44.517  1.00  0.00    -0.624 OA
ATOM    388  O5'   U A  16      15.956  85.503  43.578  1.00  0.00    -0.287 OA
ATOM    389  C5'   U A  16      15.608  85.265  42.212  1.00  0.00     0.216 C 
ATOM    390  C4'   U A  16      14.172  85.672  41.961  1.00  0.00     0.180 C 
ATOM    391  O4'   U A  16      13.758  86.598  43.007  1.00  0.00    -0.353 OA
ATOM    392  C1'   U A  16      13.131  87.726  42.430  1.00  0.00     0.264 C 
ATOM    393  N1    U A  16      14.044  88.874  42.548  1.00  0.00    -0.280 N 
ATOM    394  C6    U A  16      15.337  88.716  42.995  1.00  0.00     0.104 A 
ATOM    395  C2    U A  16      13.561  90.123  42.195  1.00  0.00     0.331 A 
ATOM    396  O2    U A  16      12.424  90.306  41.795  1.00  0.00    -0.246 OA
ATOM    397  N3    U A  16      14.459  91.150  42.327  1.00  0.00    -0.275 N 
ATOM    398  H3    U A  16      14.133  92.071  42.079  1.00  0.00     0.173 HD
ATOM    399  C4    U A  16      15.761  91.062  42.764  1.00  0.00     0.250 A 
ATOM    400  O4    U A  16      16.450  92.081  42.815  1.00  0.00    -0.268 OA
ATOM    401  C5    U A  16      16.185  89.743  43.111  1.00  0.00     0.092 A 
ATOM    402  C2'   U A  16      12.780  87.351  40.993  1.00  0.00     0.199 C 
ATOM    403  O2'   U A  16      11.536  86.674  40.995  1.00  0.00    -0.388 OA
ATOM    404 'HO2   U A  16      11.721  85.748  40.829  1.00  0.00     0.210 HD
ATOM    405  C3'   U A  16      13.927  86.409  40.647  1.00  0.00     0.198 C 
ATOM    406  O3'   U A  16      13.583  85.508  39.597  1.00  0.00    -0.279 OA
ATOM    407  P     G A  17      14.741  84.841  38.699  1.00  0.00     0.408 P 
ATOM    408  OP1   G A  17      15.961  85.678  38.830  1.00  0.00    -0.624 OA
ATOM    409  OP2   G A  17      14.177  84.573  37.351  1.00  0.00    -0.624 OA
ATOM    410  O5'   G A  17      15.024  83.444  39.411  1.00  0.00    -0.287 OA
ATOM    411  C5'   G A  17      15.447  82.305  38.660  1.00  0.00     0.216 C 
ATOM    412  C4'   G A  17      15.330  81.051  39.498  1.00  0.00     0.180 C 
ATOM    413  O4'   G A  17      14.651  81.369  40.743  1.00  0.00    -0.353 OA
ATOM    414  C1'   G A  17      13.786  80.305  41.102  1.00  0.00     0.262 C 
ATOM    415  N9    G A  17      12.415  80.802  41.100  1.00  0.00    -0.293 N 
ATOM    416  C4    G A  17      11.357  80.271  41.796  1.00  0.00     0.187 A 
ATOM    417  N3    G A  17      11.406  79.197  42.612  1.00  0.00    -0.044 NA
ATOM    418  C2    G A  17      10.226  78.926  43.140  1.00  0.00     0.703 A 
ATOM    419  N2    G A  17      10.099  77.892  43.975  1.00  0.00    -0.233 N 
ATOM    420  H21   G A  17      10.906  77.327  44.194  1.00  0.00     0.174 HD
ATOM    421  H22   G A  17       9.200  77.674  44.384  1.00  0.00     0.174 HD
ATOM    422  N1    G A  17       9.087  79.647  42.889  1.00  0.00    -0.153 N 
ATOM    423  H1    G A  17       8.237  79.355  43.346  1.00  0.00     0.187 HD
ATOM    424  C6    G A  17       9.012  80.756  42.054  1.00  0.00     0.292 A 
ATOM    425  O6    G A  17       7.930  81.335  41.898  1.00  0.00    -0.265 OA
ATOM    426  C5    G A  17      10.273  81.063  41.478  1.00  0.00     0.173 A 
ATOM    427  N7    G A  17      10.643  82.074  40.600  1.00  0.00    -0.234 NA
ATOM    428  C8    G A  17      11.918  81.879  40.406  1.00  0.00     0.214 A 
ATOM    429  C2'   G A  17      14.019  79.167  40.111  1.00  0.00     0.199 C 
ATOM    430  O2'   G A  17      15.033  78.321  40.621  1.00  0.00    -0.388 OA
ATOM    431 'HO2   G A  17      14.669  77.434  40.644  1.00  0.00     0.210 HD
ATOM    432  C3'   G A  17      14.493  79.937  38.884  1.00  0.00     0.198 C 
ATOM    433  O3'   G A  17      15.260  79.128  37.995  1.00  0.00    -0.279 OA
ATOM    434  P     G A  18      14.512  78.170  36.941  1.00  0.00     0.408 P 
ATOM    435  OP1   G A  18      15.559  77.538  36.097  1.00  0.00    -0.624 OA
ATOM    436  OP2   G A  18      13.418  78.939  36.296  1.00  0.00    -0.624 OA
ATOM    437  O5'   G A  18      13.853  77.035  37.846  1.00  0.00    -0.287 OA
ATOM    438  C5'   G A  18      14.643  75.983  38.397  1.00  0.00     0.216 C 
ATOM    439  C4'   G A  18      13.813  75.144  39.340  1.00  0.00     0.180 C 
ATOM    440  O4'   G A  18      13.105  76.019  40.258  1.00  0.00    -0.353 OA
ATOM    441  C1'   G A  18      11.850  75.449  40.585  1.00  0.00     0.262 C 
ATOM    442  N9    G A  18      10.802  76.401  40.235  1.00  0.00    -0.293 N 
ATOM    443  C4    G A  18       9.519  76.416  40.727  1.00  0.00     0.187 A 
ATOM    444  N3    G A  18       9.004  75.549  41.623  1.00  0.00    -0.044 NA
ATOM    445  C2    G A  18       7.740  75.815  41.897  1.00  0.00     0.703 A 
ATOM    446  N2    G A  18       7.074  75.048  42.763  1.00  0.00    -0.233 N 
ATOM    447  H21   G A  18       7.545  74.273  43.202  1.00  0.00     0.174 HD
ATOM    448  H22   G A  18       6.105  75.244  42.977  1.00  0.00     0.174 HD
ATOM    449  N1    G A  18       7.036  76.851  41.338  1.00  0.00    -0.153 N 
ATOM    450  H1    G A  18       6.074  76.966  41.618  1.00  0.00     0.187 HD
ATOM    451  C6    G A  18       7.545  77.759  40.417  1.00  0.00     0.292 A 
ATOM    452  O6    G A  18       6.821  78.660  39.979  1.00  0.00    -0.265 OA
ATOM    453  C5    G A  18       8.903  77.484  40.109  1.00  0.00     0.173 A 
ATOM    454  N7    G A  18       9.781  78.129  39.248  1.00  0.00    -0.234 NA
ATOM    455  C8    G A  18      10.891  77.452  39.355  1.00  0.00     0.214 A 
ATOM    456  C2'   G A  18      11.730  74.117  39.840  1.00  0.00     0.199 C 
ATOM    457  O2'   G A  18      12.162  73.077  40.698  1.00  0.00    -0.388 OA
ATOM    458 'HO2   G A  18      12.880  72.634  40.244  1.00  0.00     0.210 HD
ATOM    459  C3'   G A  18      12.710  74.321  38.690  1.00  0.00     0.198 C 
ATOM    460  O3'   G A  18      13.207  73.086  38.178  1.00  0.00    -0.279 OA
ATOM    461  P     C A  19      12.446  72.360  36.961  1.00  0.00     0.408 P 
ATOM    462  OP1   C A  19      13.147  71.078  36.696  1.00  0.00    -0.624 OA
ATOM    463  OP2   C A  19      12.278  73.345  35.862  1.00  0.00    -0.624 OA
ATOM    464  O5'   C A  19      11.004  72.021  37.550  1.00  0.00    -0.287 OA
ATOM    465  C5'   C A  19      10.851  71.143  38.666  1.00  0.00     0.216 C 
ATOM    466  C4'   C A  19       9.406  70.720  38.803  1.00  0.00     0.180 C 
ATOM    467  O4'   C A  19       8.581  71.914  38.930  1.00  0.00    -0.353 OA
ATOM    468  C1'   C A  19       7.700  72.004  37.828  1.00  0.00     0.264 C 
ATOM    469  N1    C A  19       7.616  73.411  37.410  1.00  0.00    -0.278 N 
ATOM    470  C6    C A  19       8.745  74.119  37.102  1.00  0.00     0.102 A 
ATOM    471  C2    C A  19       6.361  74.016  37.326  1.00  0.00     0.352 A 
ATOM    472  O2    C A  19       5.353  73.356  37.624  1.00  0.00    -0.244 OA
ATOM    473  N3    C A  19       6.273  75.301  36.923  1.00  0.00    -0.177 NA
ATOM    474  C4    C A  19       7.378  75.980  36.614  1.00  0.00     0.128 A 
ATOM    475  N4    C A  19       7.237  77.240  36.207  1.00  0.00    -0.384 N 
ATOM    476  H41   C A  19       8.043  77.795  35.958  1.00  0.00     0.157 HD
ATOM    477  H42   C A  19       6.307  77.630  36.139  1.00  0.00     0.157 HD
ATOM    478  C5    C A  19       8.674  75.394  36.703  1.00  0.00     0.067 A 
ATOM    479  C2'   C A  19       8.251  71.074  36.751  1.00  0.00     0.199 C 
ATOM    480  O2'   C A  19       7.176  70.605  35.958  1.00  0.00    -0.388 OA
ATOM    481 'HO2   C A  19       6.878  69.786  36.355  1.00  0.00     0.210 HD
ATOM    482  C3'   C A  19       8.836  69.961  37.606  1.00  0.00     0.198 C 
ATOM    483  O3'   C A  19       7.841  69.018  37.999  1.00  0.00    -0.279 OA
ATOM    484  P     C A  20       8.242  67.480  38.252  1.00  0.00     0.408 P 
ATOM    485  OP1   C A  20       9.600  67.259  37.691  1.00  0.00    -0.624 OA
ATOM    486  OP2   C A  20       7.114  66.632  37.792  1.00  0.00    -0.624 OA
ATOM    487  O5'   C A  20       8.339  67.364  39.839  1.00  0.00    -0.287 OA
ATOM    488  C5'   C A  20       7.583  68.226  40.688  1.00  0.00     0.216 C 
ATOM    489  C4'   C A  20       6.908  67.423  41.776  1.00  0.00     0.180 C 
ATOM    490  O4'   C A  20       7.586  67.693  43.037  1.00  0.00    -0.353 OA
ATOM    491  C1'   C A  20       6.680  68.277  43.952  1.00  0.00     0.264 C 
ATOM    492  N1    C A  20       7.396  69.310  44.717  1.00  0.00    -0.278 N 
ATOM    493  C6    C A  20       7.993  70.364  44.085  1.00  0.00     0.102 A 
ATOM    494  C2    C A  20       7.459  69.196  46.108  1.00  0.00     0.352 A 
ATOM    495  O2    C A  20       6.906  68.230  46.656  1.00  0.00    -0.244 OA
ATOM    496  N3    C A  20       8.116  70.137  46.820  1.00  0.00    -0.177 NA
ATOM    497  C4    C A  20       8.697  71.161  46.193  1.00  0.00     0.128 A 
ATOM    498  N4    C A  20       9.334  72.064  46.937  1.00  0.00    -0.384 N 
ATOM    499  H41   C A  20       9.786  72.853  46.496  1.00  0.00     0.157 HD
ATOM    500  H42   C A  20       9.364  71.958  47.940  1.00  0.00     0.157 HD
ATOM    501  C5    C A  20       8.647  71.305  44.777  1.00  0.00     0.067 A 
ATOM    502  C2'   C A  20       5.510  68.807  43.127  1.00  0.00     0.199 C 
ATOM    503  O2'   C A  20       4.341  68.781  43.923  1.00  0.00    -0.388 OA
ATOM    504 'HO2   C A  20       3.851  67.999  43.669  1.00  0.00     0.210 HD
ATOM    505  C3'   C A  20       5.442  67.767  42.016  1.00  0.00     0.198 C 
ATOM    506  O3'   C A  20       4.689  66.618  42.396  1.00  0.00    -0.279 OA
ATOM    507  P     A A  21       3.772  65.866  41.310  1.00  0.00     0.408 P 
ATOM    508  OP1   A A  21       4.429  66.017  39.986  1.00  0.00    -0.624 OA
ATOM    509  OP2   A A  21       3.464  64.508  41.825  1.00  0.00    -0.624 OA
ATOM    510  O5'   A A  21       2.424  66.715  41.289  1.00  0.00    -0.287 OA
ATOM    511  C5'   A A  21       1.514  66.683  42.390  1.00  0.00     0.216 C 
ATOM    512  C4'   A A  21       0.222  67.373  42.018  1.00  0.00     0.180 C 
ATOM    513  O4'   A A  21       0.425  68.811  42.108  1.00  0.00    -0.353 OA
ATOM    514  C1'   A A  21       0.368  69.386  40.816  1.00  0.00     0.262 C 
ATOM    515  N9    A A  21       1.477  70.331  40.688  1.00  0.00    -0.294 N 
ATOM    516  C4    A A  21       1.379  71.699  40.597  1.00  0.00     0.167 A 
ATOM    517  N3    A A  21       0.257  72.440  40.607  1.00  0.00    -0.222 NA
ATOM    518  C2    A A  21       0.550  73.734  40.500  1.00  0.00     0.237 A 
ATOM    519  N1    A A  21       1.746  74.327  40.393  1.00  0.00    -0.222 NA
ATOM    520  C6    A A  21       2.852  73.554  40.386  1.00  0.00     0.155 A 
ATOM    521  N6    A A  21       4.041  74.144  40.277  1.00  0.00    -0.382 N 
ATOM    522  H61   A A  21       4.882  73.585  40.268  1.00  0.00     0.157 HD
ATOM    523  H62   A A  21       4.096  75.148  40.195  1.00  0.00     0.157 HD
ATOM    524  C5    A A  21       2.678  72.162  40.493  1.00  0.00     0.149 A 
ATOM    525  N7    A A  21       3.580  71.108  40.517  1.00  0.00    -0.236 NA
ATOM    526  C8    A A  21       2.818  70.047  40.633  1.00  0.00     0.214 A 
ATOM    527  C2'   A A  21       0.413  68.241  39.807  1.00  0.00     0.199 C 
ATOM    528  O2'   A A  21      -0.344  68.616  38.671  1.00  0.00    -0.388 OA
ATOM    529 'HO2   A A  21      -0.740  67.818  38.311  1.00  0.00     0.210 HD
ATOM    530  C3'   A A  21      -0.267  67.127  40.595  1.00  0.00     0.198 C 
ATOM    531  O3'   A A  21      -1.688  67.191  40.517  1.00  0.00    -0.279 OA
ATOM    532  P     A A  22      -2.475  66.251  39.477  1.00  0.00     0.408 P 
ATOM    533  OP1   A A  22      -2.126  64.844  39.806  1.00  0.00    -0.624 OA
ATOM    534  OP2   A A  22      -3.901  66.668  39.460  1.00  0.00    -0.624 OA
ATOM    535  O5'   A A  22      -1.828  66.616  38.067  1.00  0.00    -0.287 OA
ATOM    536  C5'   A A  22      -1.455  65.596  37.142  1.00  0.00     0.216 C 
ATOM    537  C4'   A A  22      -1.290  66.182  35.759  1.00  0.00     0.180 C 
ATOM    538  O4'   A A  22      -2.533  66.844  35.392  1.00  0.00    -0.353 OA
ATOM    539  C1'   A A  22      -2.274  68.194  35.065  1.00  0.00     0.262 C 
ATOM    540  N9    A A  22      -3.409  69.003  35.507  1.00  0.00    -0.294 N 
ATOM    541  C4    A A  22      -3.898  70.128  34.890  1.00  0.00     0.167 A 
ATOM    542  N3    A A  22      -3.438  70.707  33.767  1.00  0.00    -0.222 NA
ATOM    543  C2    A A  22      -4.161  71.783  33.465  1.00  0.00     0.237 A 
ATOM    544  N1    A A  22      -5.211  72.308  34.110  1.00  0.00    -0.222 NA
ATOM    545  C6    A A  22      -5.646  71.702  35.235  1.00  0.00     0.155 A 
ATOM    546  N6    A A  22      -6.691  72.225  35.876  1.00  0.00    -0.382 N 
ATOM    547  H61   A A  22      -7.032  71.788  36.720  1.00  0.00     0.157 HD
ATOM    548  H62   A A  22      -7.134  73.058  35.516  1.00  0.00     0.157 HD
ATOM    549  C5    A A  22      -4.965  70.548  35.663  1.00  0.00     0.149 A 
ATOM    550  N7    A A  22      -5.148  69.704  36.749  1.00  0.00    -0.236 NA
ATOM    551  C8    A A  22      -4.202  68.806  36.612  1.00  0.00     0.214 A 
ATOM    552  C2'   A A  22      -0.953  68.554  35.737  1.00  0.00     0.199 C 
ATOM    553  O2'   A A  22      -0.323  69.575  34.984  1.00  0.00    -0.388 OA
ATOM    554 'HO2   A A  22       0.003  69.165  34.182  1.00  0.00     0.210 HD
ATOM    555  C3'   A A  22      -0.194  67.237  35.625  1.00  0.00     0.198 C 
ATOM    556  O3'   A A  22       0.490  67.113  34.379  1.00  0.00    -0.279 OA
ATOM    557  P     A A  23       2.094  66.981  34.351  1.00  0.00     0.408 P 
ATOM    558  OP1   A A  23       2.621  68.222  33.726  1.00  0.00    -0.624 OA
ATOM    559  OP2   A A  23       2.576  66.578  35.697  1.00  0.00    -0.624 OA
ATOM    560  O5'   A A  23       2.362  65.776  33.344  1.00  0.00    -0.287 OA
ATOM    561  C5'   A A  23       2.106  64.424  33.726  1.00  0.00     0.216 C 
ATOM    562  C4'   A A  23       1.213  63.756  32.707  1.00  0.00     0.180 C 
ATOM    563  O4'   A A  23       2.048  62.960  31.818  1.00  0.00    -0.353 OA
ATOM    564  C1'   A A  23       1.638  61.609  31.862  1.00  0.00     0.262 C 
ATOM    565  N9    A A  23       2.823  60.761  31.743  1.00  0.00    -0.294 N 
ATOM    566  C4    A A  23       2.922  59.603  31.009  1.00  0.00     0.167 A 
ATOM    567  N3    A A  23       1.964  59.026  30.264  1.00  0.00    -0.222 NA
ATOM    568  C2    A A  23       2.420  57.913  29.694  1.00  0.00     0.237 A 
ATOM    569  N1    A A  23       3.634  57.355  29.777  1.00  0.00    -0.222 NA
ATOM    570  C6    A A  23       4.574  57.961  30.533  1.00  0.00     0.155 A 
ATOM    571  N6    A A  23       5.782  57.403  30.614  1.00  0.00    -0.382 N 
ATOM    572  H61   A A  23       6.502  57.837  31.173  1.00  0.00     0.157 HD
ATOM    573  H62   A A  23       5.973  56.549  30.112  1.00  0.00     0.157 HD
ATOM    574  C5    A A  23       4.216  59.150  31.193  1.00  0.00     0.149 A 
ATOM    575  N7    A A  23       4.922  60.006  32.028  1.00  0.00    -0.236 NA
ATOM    576  C8    A A  23       4.053  60.942  32.326  1.00  0.00     0.214 A 
ATOM    577  C2'   A A  23       0.872  61.435  33.169  1.00  0.00     0.199 C 
ATOM    578  O2'   A A  23      -0.071  60.392  33.011  1.00  0.00    -0.388 OA
ATOM    579 'HO2   A A  23      -0.843  60.784  32.600  1.00  0.00     0.210 HD
ATOM    580  C3'   A A  23       0.180  62.789  33.281  1.00  0.00     0.198 C 
ATOM    581  O3'   A A  23      -1.039  62.825  32.543  1.00  0.00    -0.279 OA
ATOM    582  P     G A  24      -2.272  63.712  33.075  1.00  0.00     0.408 P 
ATOM    583  OP1   G A  24      -3.417  63.453  32.164  1.00  0.00    -0.624 OA
ATOM    584  OP2   G A  24      -2.427  63.471  34.532  1.00  0.00    -0.624 OA
ATOM    585  O5'   G A  24      -1.788  65.213  32.856  1.00  0.00    -0.287 OA
ATOM    586  C5'   G A  24      -1.709  65.780  31.548  1.00  0.00     0.216 C 
ATOM    587  C4'   G A  24      -2.969  66.554  31.240  1.00  0.00     0.180 C 
ATOM    588  O4'   G A  24      -3.045  67.694  32.143  1.00  0.00    -0.353 OA
ATOM    589  C1'   G A  24      -3.310  68.872  31.407  1.00  0.00     0.262 C 
ATOM    590  N9    G A  24      -2.087  69.667  31.360  1.00  0.00    -0.293 N 
ATOM    591  C4    G A  24      -1.952  70.939  30.858  1.00  0.00     0.187 A 
ATOM    592  N3    G A  24      -2.934  71.687  30.312  1.00  0.00    -0.044 NA
ATOM    593  C2    G A  24      -2.494  72.869  29.920  1.00  0.00     0.703 A 
ATOM    594  N2    G A  24      -3.338  73.736  29.354  1.00  0.00    -0.233 N 
ATOM    595  H21   G A  24      -4.306  73.476  29.235  1.00  0.00     0.174 HD
ATOM    596  H22   G A  24      -3.012  74.642  29.049  1.00  0.00     0.174 HD
ATOM    597  N1    G A  24      -1.195  73.287  30.049  1.00  0.00    -0.153 N 
ATOM    598  H1    G A  24      -0.957  74.212  29.719  1.00  0.00     0.187 HD
ATOM    599  C6    G A  24      -0.166  72.535  30.605  1.00  0.00     0.292 A 
ATOM    600  O6    G A  24       0.974  73.006  30.670  1.00  0.00    -0.265 OA
ATOM    601  C5    G A  24      -0.623  71.262  31.033  1.00  0.00     0.173 A 
ATOM    602  N7    G A  24       0.065  70.216  31.634  1.00  0.00    -0.234 NA
ATOM    603  C8    G A  24      -0.842  69.296  31.810  1.00  0.00     0.214 A 
ATOM    604  C2'   G A  24      -3.822  68.431  30.038  1.00  0.00     0.199 C 
ATOM    605  O2'   G A  24      -5.211  68.173  30.132  1.00  0.00    -0.388 OA
ATOM    606 'HO2   G A  24      -5.329  67.242  29.941  1.00  0.00     0.210 HD
ATOM    607  C3'   G A  24      -3.036  67.141  29.834  1.00  0.00     0.198 C 
ATOM    608  O3'   G A  24      -3.684  66.248  28.932  1.00  0.00    -0.279 OA
ATOM    609  P     C A  25      -3.071  66.007  27.464  1.00  0.00     0.408 P 
ATOM    610  OP1   C A  25      -3.982  65.078  26.749  1.00  0.00    -0.624 OA
ATOM    611  OP2   C A  25      -1.633  65.660  27.608  1.00  0.00    -0.624 OA
ATOM    612  O5'   C A  25      -3.168  67.436  26.766  1.00  0.00    -0.287 OA
ATOM    613  C5'   C A  25      -4.427  68.085  26.597  1.00  0.00     0.216 C 
ATOM    614  C4'   C A  25      -4.221  69.545  26.272  1.00  0.00     0.180 C 
ATOM    615  O4'   C A  25      -3.627  70.209  27.421  1.00  0.00    -0.353 OA
ATOM    616  C1'   C A  25      -2.705  71.192  26.979  1.00  0.00     0.264 C 
ATOM    617  N1    C A  25      -1.364  70.831  27.468  1.00  0.00    -0.278 N 
ATOM    618  C6    C A  25      -1.123  69.606  28.025  1.00  0.00     0.102 A 
ATOM    619  C2    C A  25      -0.331  71.764  27.351  1.00  0.00     0.352 A 
ATOM    620  O2    C A  25      -0.574  72.868  26.842  1.00  0.00    -0.244 OA
ATOM    621  N3    C A  25       0.904  71.445  27.795  1.00  0.00    -0.177 NA
ATOM    622  C4    C A  25       1.127  70.249  28.342  1.00  0.00     0.128 A 
ATOM    623  N4    C A  25       2.360  69.982  28.769  1.00  0.00    -0.384 N 
ATOM    624  H41   C A  25       2.571  69.089  29.189  1.00  0.00     0.157 HD
ATOM    625  H42   C A  25       3.084  70.682  28.674  1.00  0.00     0.157 HD
ATOM    626  C5    C A  25       0.094  69.276  28.474  1.00  0.00     0.067 A 
ATOM    627  C2'   C A  25      -2.802  71.255  25.455  1.00  0.00     0.199 C 
ATOM    628  O2'   C A  25      -3.796  72.199  25.103  1.00  0.00    -0.388 OA
ATOM    629 'HO2   C A  25      -4.375  71.769  24.473  1.00  0.00     0.210 HD
ATOM    630  C3'   C A  25      -3.252  69.836  25.136  1.00  0.00     0.198 C 
ATOM    631  O3'   C A  25      -3.882  69.733  23.861  1.00  0.00    -0.279 OA
ATOM    632  P     C A  26      -3.025  69.270  22.581  1.00  0.00     0.408 P 
ATOM    633  OP1   C A  26      -3.985  68.987  21.484  1.00  0.00    -0.624 OA
ATOM    634  OP2   C A  26      -2.067  68.217  23.007  1.00  0.00    -0.624 OA
ATOM    635  O5'   C A  26      -2.188  70.567  22.187  1.00  0.00    -0.287 OA
ATOM    636  C5'   C A  26      -2.844  71.785  21.837  1.00  0.00     0.216 C 
ATOM    637  C4'   C A  26      -1.831  72.892  21.662  1.00  0.00     0.180 C 
ATOM    638  O4'   C A  26      -1.219  73.189  22.947  1.00  0.00    -0.353 OA
ATOM    639  C1'   C A  26       0.151  73.504  22.760  1.00  0.00     0.264 C 
ATOM    640  N1    C A  26       0.965  72.493  23.457  1.00  0.00    -0.278 N 
ATOM    641  C6    C A  26       0.430  71.288  23.819  1.00  0.00     0.102 A 
ATOM    642  C2    C A  26       2.300  72.786  23.744  1.00  0.00     0.352 A 
ATOM    643  O2    C A  26       2.762  73.883  23.403  1.00  0.00    -0.244 OA
ATOM    644  N3    C A  26       3.056  71.867  24.383  1.00  0.00    -0.177 NA
ATOM    645  C4    C A  26       2.525  70.696  24.736  1.00  0.00     0.128 A 
ATOM    646  N4    C A  26       3.309  69.823  25.368  1.00  0.00    -0.384 N 
ATOM    647  H41   C A  26       2.950  68.925  25.653  1.00  0.00     0.157 HD
ATOM    648  H42   C A  26       4.270  70.072  25.562  1.00  0.00     0.157 HD
ATOM    649  C5    C A  26       1.166  70.369  24.457  1.00  0.00     0.067 A 
ATOM    650  C2'   C A  26       0.403  73.550  21.254  1.00  0.00     0.199 C 
ATOM    651  O2'   C A  26       0.143  74.861  20.788  1.00  0.00    -0.388 OA
ATOM    652 'HO2   C A  26      -0.292  74.772  19.940  1.00  0.00     0.210 HD
ATOM    653  C3'   C A  26      -0.650  72.569  20.758  1.00  0.00     0.198 C 
ATOM    654  O3'   C A  26      -0.963  72.752  19.380  1.00  0.00    -0.279 OA
ATOM    655  P     C A  27      -0.139  71.942  18.261  1.00  0.00     0.408 P 
ATOM    656  OP1   C A  27      -0.837  72.143  16.964  1.00  0.00    -0.624 OA
ATOM    657  OP2   C A  27       0.104  70.563  18.756  1.00  0.00    -0.624 OA
ATOM    658  O5'   C A  27       1.263  72.697  18.192  1.00  0.00    -0.287 OA
ATOM    659  C5'   C A  27       1.353  74.036  17.713  1.00  0.00     0.216 C 
ATOM    660  C4'   C A  27       2.742  74.583  17.945  1.00  0.00     0.180 C 
ATOM    661  O4'   C A  27       3.069  74.489  19.358  1.00  0.00    -0.353 OA
ATOM    662  C1'   C A  27       4.461  74.261  19.507  1.00  0.00     0.264 C 
ATOM    663  N1    C A  27       4.656  73.010  20.260  1.00  0.00    -0.278 N 
ATOM    664  C6    C A  27       3.641  72.104  20.392  1.00  0.00     0.102 A 
ATOM    665  C2    C A  27       5.902  72.762  20.840  1.00  0.00     0.352 A 
ATOM    666  O2    C A  27       6.806  73.596  20.701  1.00  0.00    -0.244 OA
ATOM    667  N3    C A  27       6.092  71.619  21.535  1.00  0.00    -0.177 NA
ATOM    668  C4    C A  27       5.094  70.744  21.665  1.00  0.00     0.128 A 
ATOM    669  N4    C A  27       5.328  69.634  22.364  1.00  0.00    -0.384 N 
ATOM    670  H41   C A  27       4.600  68.945  22.487  1.00  0.00     0.157 HD
ATOM    671  H42   C A  27       6.239  69.488  22.777  1.00  0.00     0.157 HD
ATOM    672  C5    C A  27       3.813  70.968  21.082  1.00  0.00     0.067 A 
ATOM    673  C2'   C A  27       5.076  74.229  18.108  1.00  0.00     0.199 C 
ATOM    674  O2'   C A  27       5.521  75.530  17.774  1.00  0.00    -0.388 OA
ATOM    675 'HO2   C A  27       5.203  75.713  16.889  1.00  0.00     0.210 HD
ATOM    676  C3'   C A  27       3.873  73.829  17.264  1.00  0.00     0.198 C 
ATOM    677  O3'   C A  27       4.017  74.202  15.896  1.00  0.00    -0.279 OA
ATOM    678  P     C A  28       4.737  73.199  14.865  1.00  0.00     0.408 P 
ATOM    679  OP1   C A  28       4.449  73.691  13.493  1.00  0.00    -0.624 OA
ATOM    680  OP2   C A  28       4.380  71.804  15.234  1.00  0.00    -0.624 OA
ATOM    681  O5'   C A  28       6.293  73.397  15.152  1.00  0.00    -0.287 OA
ATOM    682  C5'   C A  28       6.954  74.617  14.816  1.00  0.00     0.216 C 
ATOM    683  C4'   C A  28       8.451  74.450  14.942  1.00  0.00     0.180 C 
ATOM    684  O4'   C A  28       8.808  74.437  16.354  1.00  0.00    -0.353 OA
ATOM    685  C1'   C A  28       9.762  73.417  16.597  1.00  0.00     0.264 C 
ATOM    686  N1    C A  28       9.116  72.355  17.387  1.00  0.00    -0.278 N 
ATOM    687  C6    C A  28       7.761  72.180  17.341  1.00  0.00     0.102 A 
ATOM    688  C2    C A  28       9.907  71.525  18.184  1.00  0.00     0.352 A 
ATOM    689  O2    C A  28      11.133  71.700  18.205  1.00  0.00    -0.244 OA
ATOM    690  N3    C A  28       9.316  70.550  18.912  1.00  0.00    -0.177 NA
ATOM    691  C4    C A  28       7.993  70.391  18.863  1.00  0.00     0.128 A 
ATOM    692  N4    C A  28       7.454  69.420  19.601  1.00  0.00    -0.384 N 
ATOM    693  H41   C A  28       6.457  69.266  19.593  1.00  0.00     0.157 HD
ATOM    694  H42   C A  28       8.050  68.838  20.172  1.00  0.00     0.157 HD
ATOM    695  C5    C A  28       7.162  71.219  18.057  1.00  0.00     0.067 A 
ATOM    696  C2'   C A  28      10.264  72.949  15.234  1.00  0.00     0.199 C 
ATOM    697  O2'   C A  28      11.311  73.806  14.813  1.00  0.00    -0.388 OA
ATOM    698 'HO2   C A  28      11.202  73.931  13.870  1.00  0.00     0.210 HD
ATOM    699  C3'   C A  28       9.013  73.146  14.390  1.00  0.00     0.198 C 
ATOM    700  O3'   C A  28       9.301  73.242  12.998  1.00  0.00    -0.279 OA
ATOM    701  P     C A  29       9.061  71.970  12.043  1.00  0.00     0.408 P 
ATOM    702  OP1   C A  29       9.156  72.442  10.639  1.00  0.00    -0.624 OA
ATOM    703  OP2   C A  29       7.837  71.261  12.497  1.00  0.00    -0.624 OA
ATOM    704  O5'   C A  29      10.313  71.028  12.338  1.00  0.00    -0.287 OA
ATOM    705  C5'   C A  29      11.642  71.465  12.059  1.00  0.00     0.216 C 
ATOM    706  C4'   C A  29      12.643  70.562  12.740  1.00  0.00     0.180 C 
ATOM    707  O4'   C A  29      12.467  70.654  14.180  1.00  0.00    -0.353 OA
ATOM    708  C1'   C A  29      12.700  69.385  14.770  1.00  0.00     0.264 C 
ATOM    709  N1    C A  29      11.461  68.940  15.429  1.00  0.00    -0.278 N 
ATOM    710  C6    C A  29      10.247  69.446  15.057  1.00  0.00     0.102 A 
ATOM    711  C2    C A  29      11.545  67.982  16.442  1.00  0.00     0.352 A 
ATOM    712  O2    C A  29      12.658  67.541  16.762  1.00  0.00    -0.244 OA
ATOM    713  N3    C A  29      10.414  67.560  17.048  1.00  0.00    -0.177 NA
ATOM    714  C4    C A  29       9.234  68.061  16.680  1.00  0.00     0.128 A 
ATOM    715  N4    C A  29       8.148  67.614  17.308  1.00  0.00    -0.384 N 
ATOM    716  H41   C A  29       7.232  67.962  17.064  1.00  0.00     0.157 HD
ATOM    717  H42   C A  29       8.249  66.917  18.036  1.00  0.00     0.157 HD
ATOM    718  C5    C A  29       9.117  69.041  15.652  1.00  0.00     0.067 A 
ATOM    719  C2'   C A  29      13.168  68.444  13.659  1.00  0.00     0.199 C 
ATOM    720  O2'   C A  29      14.578  68.518  13.564  1.00  0.00    -0.388 OA
ATOM    721 'HO2   C A  29      14.785  68.669  12.641  1.00  0.00     0.210 HD
ATOM    722  C3'   C A  29      12.499  69.075  12.445  1.00  0.00     0.198 C 
ATOM    723  O3'   C A  29      13.131  68.710  11.222  1.00  0.00    -0.279 OA
ATOM    724  P     C A  30      12.626  67.411  10.419  1.00  0.00     0.408 P 
ATOM    725  OP1   C A  30      13.438  67.310   9.180  1.00  0.00    -0.624 OA
ATOM    726  OP2   C A  30      11.144  67.464  10.324  1.00  0.00    -0.624 OA
ATOM    727  O5'   C A  30      13.015  66.193  11.371  1.00  0.00    -0.287 OA
ATOM    728  C5'   C A  30      14.379  65.898  11.664  1.00  0.00     0.216 C 
ATOM    729  C4'   C A  30      14.471  64.666  12.535  1.00  0.00     0.180 C 
ATOM    730  O4'   C A  30      13.994  64.990  13.869  1.00  0.00    -0.353 OA
ATOM    731  C1'   C A  30      13.334  63.866  14.425  1.00  0.00     0.264 C 
ATOM    732  N1    C A  30      11.946  64.248  14.735  1.00  0.00    -0.278 N 
ATOM    733  C6    C A  30      11.320  65.245  14.041  1.00  0.00     0.102 A 
ATOM    734  C2    C A  30      11.276  63.572  15.757  1.00  0.00     0.352 A 
ATOM    735  O2    C A  30      11.867  62.673  16.372  1.00  0.00    -0.244 OA
ATOM    736  N3    C A  30      10.002  63.914  16.051  1.00  0.00    -0.177 NA
ATOM    737  C4    C A  30       9.399  64.890  15.370  1.00  0.00     0.128 A 
ATOM    738  N4    C A  30       8.145  65.193  15.697  1.00  0.00    -0.384 N 
ATOM    739  H41   C A  30       7.651  65.924  15.208  1.00  0.00     0.157 HD
ATOM    740  H42   C A  30       7.689  64.684  16.443  1.00  0.00     0.157 HD
ATOM    741  C5    C A  30      10.060  65.598  14.324  1.00  0.00     0.067 A 
ATOM    742  C2'   C A  30      13.441  62.722  13.417  1.00  0.00     0.199 C 
ATOM    743  O2'   C A  30      14.599  61.966  13.713  1.00  0.00    -0.388 OA
ATOM    744 'HO2   C A  30      15.224  62.130  13.007  1.00  0.00     0.210 HD
ATOM    745  C3'   C A  30      13.604  63.490  12.111  1.00  0.00     0.198 C 
ATOM    746  O3'   C A  30      14.230  62.711  11.095  1.00  0.00    -0.279 OA
ATOM    747  P     C A  31      13.336  61.781  10.135  1.00  0.00     0.408 P 
ATOM    748  OP1   C A  31      14.250  61.150   9.149  1.00  0.00    -0.624 OA
ATOM    749  OP2   C A  31      12.175  62.574   9.655  1.00  0.00    -0.624 OA
ATOM    750  O5'   C A  31      12.787  60.640  11.103  1.00  0.00    -0.287 OA
ATOM    751  C5'   C A  31      13.682  59.781  11.807  1.00  0.00     0.216 C 
ATOM    752  C4'   C A  31      12.905  58.816  12.674  1.00  0.00     0.180 C 
ATOM    753  O4'   C A  31      12.349  59.537  13.804  1.00  0.00    -0.353 OA
ATOM    754  C1'   C A  31      11.109  58.960  14.171  1.00  0.00     0.264 C 
ATOM    755  N1    C A  31      10.081  60.013  14.140  1.00  0.00    -0.278 N 
ATOM    756  C6    C A  31      10.148  61.031  13.230  1.00  0.00     0.102 A 
ATOM    757  C2    C A  31       9.028  59.955  15.057  1.00  0.00     0.352 A 
ATOM    758  O2    C A  31       8.992  59.022  15.874  1.00  0.00    -0.244 OA
ATOM    759  N3    C A  31       8.076  60.913  15.032  1.00  0.00    -0.177 NA
ATOM    760  C4    C A  31       8.151  61.904  14.143  1.00  0.00     0.128 A 
ATOM    761  N4    C A  31       7.191  62.826  14.158  1.00  0.00    -0.384 N 
ATOM    762  H41   C A  31       7.208  63.592  13.502  1.00  0.00     0.157 HD
ATOM    763  H42   C A  31       6.442  62.753  14.833  1.00  0.00     0.157 HD
ATOM    764  C5    C A  31       9.214  61.990  13.197  1.00  0.00     0.067 A 
ATOM    765  C2'   C A  31      10.827  57.799  13.214  1.00  0.00     0.198 C 
ATOM    766  O2'   C A  31      11.271  56.598  13.817  1.00  0.00    -0.388 OA
ATOM    767 'HO2   C A  31      11.682  56.074  13.127  1.00  0.00     0.210 HD
ATOM    768  C3'   C A  31      11.696  58.170  12.016  1.00  0.00     0.182 C 
ATOM    769  O3'   C A  31      12.055  57.029  11.228  1.00  0.00    -0.390 OA
ATOM    770 'HO3   C A  31      12.733  57.313  10.609  1.00  0.00     0.210 HD
ENDROOT
TORSDOF 244
ENDMDL
MODEL 2
REMARK VINA RESULT:     -15.6      7.324     26.554
REMARK  0 active torsions:
REMARK  status: ('A' for Active; 'I' for Inactive)
REMARK       I    between atoms: O5'_2  and  C5'_3 
REMARK       I    between atoms: C5'_3  and  C4'_4 
REMARK       I    between atoms: C1'_6  and  N9_7 
REMARK       I    between atoms: C2_10  and  N2_11 
REMARK       I    between atoms: C2'_21  and  O2'_22 
REMARK       I    between atoms: C3'_24  and  O3'_25 
REMARK       I    between atoms: O3'_25  and  P_26 
REMARK       I    between atoms: P_26  and  O5'_29 
REMARK       I    between atoms: O5'_29  and  C5'_30 
REMARK       I    between atoms: C5'_30  and  C4'_31 
REMARK       I    between atoms: C1'_33  and  N9_34 
REMARK       I    between atoms: C2_37  and  N2_38 
REMARK       I    between atoms: C2'_48  and  O2'_49 
REMARK       I    between atoms: C3'_51  and  O3'_52 
REMARK       I    between atoms: O3'_52  and  P_53 
REMARK       I    between atoms: P_53  and  O5'_56 
REMARK       I    between atoms: O5'_56  and  C5'_57 
REMARK       I    between atoms: C5'_57  and  C4'_58 
REMARK       I    between atoms: C1'_60  and  N9_61 
REMARK       I    between atoms: C2_64  and  N2_65 
REMARK       I    between atoms: C2'_75  and  O2'_76 
REMARK       I    between atoms: C3'_78  and  O3'_79 
REMARK       I    between atoms: O3'_79  and  P_80 
REMARK       I    between atoms: P_80  and  O5'_83 
REMARK       I    between atoms: O5'_83  and  C5'_84 
REMARK       I    between atoms: C5'_84  and  C4'_85 
REMARK       I    between atoms: C1'_87  and  N9_88 
REMARK       I    between atoms: C2_91  and  N2_92 
REMARK       I    between atoms: C2'_102  and  O2'_103 
REMARK       I    between atoms: C3'_105  and  O3'_106 
REMARK       I    between atoms: O3'_106  and  P_107 
REMARK       I    between atoms: P_107  and  O5'_110 
REMARK       I    between atoms: O5'_110  and  C5'_111 
REMARK       I    between atoms: C5'_111  and  C4'_112 
REMARK       I    between atoms: C1'_114  and  N9_115 
REMARK       I    between atoms: C2_118  and  N2_119 
REMARK       I    between atoms: C2'_129  and  O2'_130 
REMARK       I    between atoms: C3'_132  and  O3'_133 
REMARK       I    between atoms: O3'_133  and  P_134 
REMARK       I    between atoms: P_134  and  O5'_137 
REMARK       I    between atoms: O5'_137  and  C5'_138 
REMARK       I    between atoms: C5'_138  and  C4'_139 
REMARK       I    between atoms: C1'_141  and  N9_142 
REMARK       I    between atoms: C2_145  and  N2_146 
REMARK       I    between atoms: C2'_156  and  O2'_157 
REMARK       I    between atoms: C3'_159  and  O3'_160 
REMARK       I    between atoms: O3'_160  and  P_161 
REMARK       I    between atoms: P_161  and  O5'_164 
REMARK       I    between atoms: O5'_164  and  C5'_165 
REMARK       I    between atoms: C5'_165  and  C4'_166 
REMARK       I    between atoms: C1'_168  and  N9_169 
REMARK       I    between atoms: C2_172  and  N2_173 
REMARK       I    between atoms: C2'_183  and  O2'_184 
REMARK       I    between atoms: C3'_186  and  O3'_187 
REMARK       I    between atoms: O3'_187  and  P_188 
REMARK       I    between atoms: P_188  and  O5'_191 
REMARK       I    between atoms: O5'_191  and  C5'_192 
REMARK       I    between atoms: C5'_192  and  C4'_193 
REMARK       I    between atoms: C1'_195  and  N1_196 
REMARK       I    between atoms: C2'_205  and  O2'_206 
REMARK       I    between atoms: C3'_208  and  O3'_209 
REMARK       I    between atoms: O3'_209  and  P_210 
REMARK       I    between atoms: P_210  and  O5'_213 
REMARK       I    between atoms: O5'_213  and  C5'_214 
REMARK       I    between atoms: C5'_214  and  C4'_215 
REMARK       I    between atoms: C1'_217  and  N9_218 
REMARK       I    between atoms: C6_223  and  N6_224 
REMARK       I    between atoms: C2'_230  and  O2'_231 
REMARK       I    between atoms: C3'_233  and  O3'_234 
REMARK       I    between atoms: O3'_234  and  P_235 
REMARK       I    between atoms: P_235  and  O5'_238 
REMARK       I    between atoms: O5'_238  and  C5'_239 
REMARK       I    between atoms: C5'_239  and  C4'_240 
REMARK       I    between atoms: C1'_242  and  N9_243 
REMARK       I    between atoms: C2_246  and  N2_247 
REMARK       I    between atoms: C2'_257  and  O2'_258 
REMARK       I    between atoms: C3'_260  and  O3'_261 
REMARK       I    between atoms: O3'_261  and  P_262 
REMARK       I    between atoms: P_262  and  O5'_265 
REMARK       I    between atoms: O5'_265  and  C5'_266 
REMARK       I    between atoms: C5'_266  and  C4'_267 
REMARK       I    between atoms: C1'_269  and  N1_270 
REMARK       I    between atoms: C4_275  and  N4_276 
REMARK       I    between atoms: C2'_280  and  O2'_281 
REMARK       I    between atoms: C3'_283  and  O3'_284 
REMARK       I    between atoms: O3'_284  and  P_285 
REMARK       I    between atoms: P_285  and  O5'_288 
REMARK       I    between atoms: O5'_288  and  C5'_289 
REMARK       I    between atoms: C5'_289  and  C4'_290 
REMARK       I    between atoms: C1'_292  and  N1_293 
REMARK       I    between atoms: C4_298  and  N4_299 
REMARK       I    between atoms: C2'_303  and  O2'_304 
REMARK       I    between atoms: C3'_306  and  O3'_307 
REMARK       I    between atoms: O3'_307  and  P_308 
REMARK       I    between atoms: P_308  and  O5'_311 
REMARK       I    between atoms: O5'_311  and  C5'_312 
REMARK       I    between atoms: C5'_312  and  C4'_313 
REMARK       I    between atoms: C1'_315  and  N9_316 
REMARK       I    between atoms: C6_321  and  N6_322 
REMARK       I    between atoms: C2'_328  and  O2'_329 
REMARK       I    between atoms: C3'_331  and  O3'_332 
REMARK       I    between atoms: O3'_332  and  P_333 
REMARK       I    between atoms: P_333  and  O5'_336 
REMARK       I    between atoms: O5'_336  and  C5'_337 
REMARK       I    between atoms: C5'_337  and  C4'_338 
REMARK       I    between atoms: C1'_340  and  N9_341 
REMARK       I    between atoms: C6_346  and  N6_347 
REMARK       I    between atoms: C2'_353  and  O2'_354 
REMARK       I    between atoms: C3'_356  and  O3'_357 
REMARK       I    between atoms: O3'_357  and  P_358 
REMARK       I    between atoms: P_358  and  O5'_361 
REMARK       I    between atoms: O5'_361  and  C5'_362 
REMARK       I    between atoms: C5'_362  and  C4'_363 
REMARK       I    between atoms: C1'_365  and  N9_366 
REMARK       I    between atoms: C2_369  and  N2_370 
REMARK       I    between atoms: C2'_380  and  O2'_381 
REMARK       I    between atoms: C3'_383  and  O3'_384 
REMARK       I    between atoms: O3'_384  and  P_385 
REMARK       I    between atoms: P_385  and  O5'_388 
REMARK       I    between atoms: O5'_388  and  C5'_389 
REMARK       I    between atoms: C5'_389  and  C4'_390 
REMARK       I    between atoms: C1'_392  and  N1_393 
REMARK       I    between atoms: C2'_402  and  O2'_403 
REMARK       I    between atoms: C3'_405  and  O3'_406 
REMARK       I    between atoms: O3'_406  and  P_407 
REMARK       I    between atoms: P_407  and  O5'_410 
REMARK       I    between atoms: O5'_410  and  C5'_411 
REMARK       I    between atoms: C5'_411  and  C4'_412 
REMARK       I    between atoms: C1'_414  and  N9_415 
REMARK       I    between atoms: C2_418  and  N2_419 
REMARK       I    between atoms: C2'_429  and  O2'_430 
REMARK       I    between atoms: C3'_432  and  O3'_433 
REMARK       I    between atoms: O3'_433  and  P_434 
REMARK       I    between atoms: P_434  and  O5'_437 
REMARK       I    between atoms: O5'_437  and  C5'_438 
REMARK       I    between atoms: C5'_438  and  C4'_439 
REMARK       I    between atoms: C1'_441  and  N9_442 
REMARK       I    between atoms: C2_445  and  N2_446 
REMARK       I    between atoms: C2'_456  and  O2'_457 
REMARK       I    between atoms: C3'_459  and  O3'_460 
REMARK       I    between atoms: O3'_460  and  P_461 
REMARK       I    between atoms: P_461  and  O5'_464 
REMARK       I    between atoms: O5'_464  and  C5'_465 
REMARK       I    between atoms: C5'_465  and  C4'_466 
REMARK       I    between atoms: C1'_468  and  N1_469 
REMARK       I    between atoms: C4_474  and  N4_475 
REMARK       I    between atoms: C2'_479  and  O2'_480 
REMARK       I    between atoms: C3'_482  and  O3'_483 
REMARK       I    between atoms: O3'_483  and  P_484 
REMARK       I    between atoms: P_484  and  O5'_487 
REMARK       I    between atoms: O5'_487  and  C5'_488 
REMARK       I    between atoms: C5'_488  and  C4'_489 
REMARK       I    between atoms: C1'_491  and  N1_492 
REMARK       I    between atoms: C4_497  and  N4_498 
REMARK       I    between atoms: C2'_502  and  O2'_503 
REMARK       I    between atoms: C3'_505  and  O3'_506 
REMARK       I    between atoms: O3'_506  and  P_507 
REMARK       I    between atoms: P_507  and  O5'_510 
REMARK       I    between atoms: O5'_510  and  C5'_511 
REMARK       I    between atoms: C5'_511  and  C4'_512 
REMARK       I    between atoms: C1'_514  and  N9_515 
REMARK       I    between atoms: C6_520  and  N6_521 
REMARK       I    between atoms: C2'_527  and  O2'_528 
REMARK       I    between atoms: C3'_530  and  O3'_531 
REMARK       I    between atoms: O3'_531  and  P_532 
REMARK       I    between atoms: P_532  and  O5'_535 
REMARK       I    between atoms: O5'_535  and  C5'_536 
REMARK       I    between atoms: C5'_536  and  C4'_537 
REMARK       I    between atoms: C1'_539  and  N9_540 
REMARK       I    between atoms: C6_545  and  N6_546 
REMARK       I    between atoms: C2'_552  and  O2'_553 
REMARK       I    between atoms: C3'_555  and  O3'_556 
REMARK       I    between atoms: O3'_556  and  P_557 
REMARK       I    between atoms: P_557  and  O5'_560 
REMARK       I    between atoms: O5'_560  and  C5'_561 
REMARK       I    between atoms: C5'_561  and  C4'_562 
REMARK       I    between atoms: C1'_564  and  N9_565 
REMARK       I    between atoms: C6_570  and  N6_571 
REMARK       I    between atoms: C2'_577  and  O2'_578 
REMARK       I    between atoms: C3'_580  and  O3'_581 
REMARK       I    between atoms: O3'_581  and  P_582 
REMARK       I    between atoms: P_582  and  O5'_585 
REMARK       I    between atoms: O5'_585  and  C5'_586 
REMARK       I    between atoms: C5'_586  and  C4'_587 
REMARK       I    between atoms: C1'_589  and  N9_590 
REMARK       I    between atoms: C2_593  and  N2_594 
REMARK       I    between atoms: C2'_604  and  O2'_605 
REMARK       I    between atoms: C3'_607  and  O3'_608 
REMARK       I    between atoms: O3'_608  and  P_609 
REMARK       I    between atoms: P_609  and  O5'_612 
REMARK       I    between atoms: O5'_612  and  C5'_613 
REMARK       I    between atoms: C5'_613  and  C4'_614 
REMARK       I    between atoms: C1'_616  and  N1_617 
REMARK       I    between atoms: C4_622  and  N4_623 
REMARK       I    between atoms: C2'_627  and  O2'_628 
REMARK       I    between atoms: C3'_630  and  O3'_631 
REMARK       I    between atoms: O3'_631  and  P_632 
REMARK       I    between atoms: P_632  and  O5'_635 
REMARK       I    between atoms: O5'_635  and  C5'_636 
REMARK       I    between atoms: C5'_636  and  C4'_637 
REMARK       I    between atoms: C1'_639  and  N1_640 
REMARK       I    between atoms: C4_645  and  N4_646 
REMARK       I    between atoms: C2'_650  and  O2'_651 
REMARK       I    between atoms: C3'_653  and  O3'_654 
REMARK       I    between atoms: O3'_654  and  P_655 
REMARK       I    between atoms: P_655  and  O5'_658 
REMARK       I    between atoms: O5'_658  and  C5'_659 
REMARK       I    between atoms: C5'_659  and  C4'_660 
REMARK       I    between atoms: C1'_662  and  N1_663 
REMARK       I    between atoms: C4_668  and  N4_669 
REMARK       I    between atoms: C2'_673  and  O2'_674 
REMARK       I    between atoms: C3'_676  and  O3'_677 
REMARK       I    between atoms: O3'_677  and  P_678 
REMARK       I    between atoms: P_678  and  O5'_681 
REMARK       I    between atoms: O5'_681  and  C5'_682 
REMARK       I    between atoms: C5'_682  and  C4'_683 
REMARK       I    between atoms: C1'_685  and  N1_686 
REMARK       I    between atoms: C4_691  and  N4_692 
REMARK       I    between atoms: C2'_696  and  O2'_697 
REMARK       I    between atoms: C3'_699  and  O3'_700 
REMARK       I    between atoms: O3'_700  and  P_701 
REMARK       I    between atoms: P_701  and  O5'_704 
REMARK       I    between atoms: O5'_704  and  C5'_705 
REMARK       I    between atoms: C5'_705  and  C4'_706 
REMARK       I    between atoms: C1'_708  and  N1_709 
REMARK       I    between atoms: C4_714  and  N4_715 
REMARK       I    between atoms: C2'_719  and  O2'_720 
REMARK       I    between atoms: C3'_722  and  O3'_723 
REMARK       I    between atoms: O3'_723  and  P_724 
REMARK       I    between atoms: P_724  and  O5'_727 
REMARK       I    between atoms: O5'_727  and  C5'_728 
REMARK       I    between atoms: C5'_728  and  C4'_729 
REMARK       I    between atoms: C1'_731  and  N1_732 
REMARK       I    between atoms: C4_737  and  N4_738 
REMARK       I    between atoms: C2'_742  and  O2'_743 
REMARK       I    between atoms: C3'_745  and  O3'_746 
REMARK       I    between atoms: O3'_746  and  P_747 
REMARK       I    between atoms: P_747  and  O5'_750 
REMARK       I    between atoms: O5'_750  and  C5'_751 
REMARK       I    between atoms: C5'_751  and  C4'_752 
REMARK       I    between atoms: C1'_754  and  N1_755 
REMARK       I    between atoms: C4_760  and  N4_761 
REMARK       I    between atoms: C2'_765  and  O2'_766 
REMARK       I    between atoms: C3'_768  and  O3'_769 
ROOT
ATOM      1 'HO5   G A   1      17.490  61.453  48.006  1.00  0.00     0.209 HD
ATOM      2  O5'   G A   1      18.100  61.473  47.264  1.00  0.00    -0.398 OA
ATOM      3  C5'   G A   1      18.233  60.128  46.789  1.00  0.00     0.198 C 
ATOM      4  C4'   G A   1      17.196  59.227  47.420  1.00  0.00     0.180 C 
ATOM      5  O4'   G A   1      17.571  58.982  48.804  1.00  0.00    -0.353 OA
ATOM      6  C1'   G A   1      16.435  59.111  49.639  1.00  0.00     0.262 C 
ATOM      7  N9    G A   1      16.592  60.319  50.445  1.00  0.00    -0.293 N 
ATOM      8  C4    G A   1      15.744  60.761  51.432  1.00  0.00     0.187 A 
ATOM      9  N3    G A   1      14.609  60.152  51.834  1.00  0.00    -0.044 NA
ATOM     10  C2    G A   1      14.010  60.819  52.805  1.00  0.00     0.703 A 
ATOM     11  N2    G A   1      12.869  60.356  53.322  1.00  0.00    -0.233 N 
ATOM     12  H21   G A   1      12.474  59.499  52.962  1.00  0.00     0.174 HD
ATOM     13  H22   G A   1      12.403  60.861  54.061  1.00  0.00     0.174 HD
ATOM     14  N1    G A   1      14.485  61.988  53.341  1.00  0.00    -0.153 N 
ATOM     15  H1    G A   1      13.950  62.416  54.082  1.00  0.00     0.187 HD
ATOM     16  C6    G A   1      15.650  62.633  52.945  1.00  0.00     0.292 A 
ATOM     17  O6    G A   1      15.988  63.686  53.497  1.00  0.00    -0.265 OA
ATOM     18  C5    G A   1      16.305  61.930  51.900  1.00  0.00     0.173 A 
ATOM     19  N7    G A   1      17.482  62.218  51.222  1.00  0.00    -0.234 NA
ATOM     20  C8    G A   1      17.610  61.237  50.370  1.00  0.00     0.214 A 
ATOM     21  C2'   G A   1      15.210  59.132  48.726  1.00  0.00     0.199 C 
ATOM     22  O2'   G A   1      14.822  57.797  48.460  1.00  0.00    -0.388 OA
ATOM     23 'HO2   G A   1      13.869  57.798  48.366  1.00  0.00     0.210 HD
ATOM     24  C3'   G A   1      15.787  59.803  47.486  1.00  0.00     0.198 C 
ATOM     25  O3'   G A   1      15.046  59.505  46.305  1.00  0.00    -0.279 OA
ATOM     26  P     G A   2      14.031  60.595  45.698  1.00  0.00     0.408 P 
ATOM     27  OP1   G A   2      13.568  60.084  44.382  1.00  0.00    -0.624 OA
ATOM     28  OP2   G A   2      14.673  61.932  45.779  1.00  0.00    -0.624 OA
ATOM     29  O5'   G A   2      12.796  60.575  46.703  1.00  0.00    -0.287 OA
ATOM     30  C5'   G A   2      11.910  59.458  46.754  1.00  0.00     0.216 C 
ATOM     31  C4'   G A   2      10.995  59.572  47.950  1.00  0.00     0.180 C 
ATOM     32  O4'   G A   2      11.797  59.727  49.152  1.00  0.00    -0.353 OA
ATOM     33  C1'   G A   2      11.119  60.569  50.069  1.00  0.00     0.262 C 
ATOM     34  N9    G A   2      11.967  61.723  50.355  1.00  0.00    -0.293 N 
ATOM     35  C4    G A   2      11.737  62.683  51.310  1.00  0.00     0.187 A 
ATOM     36  N3    G A   2      10.679  62.734  52.144  1.00  0.00    -0.044 NA
ATOM     37  C2    G A   2      10.738  63.776  52.952  1.00  0.00     0.703 A 
ATOM     38  N2    G A   2       9.762  63.982  53.840  1.00  0.00    -0.233 N 
ATOM     39  H21   G A   2       8.991  63.332  53.882  1.00  0.00     0.174 HD
ATOM     40  H22   G A   2       9.791  64.780  54.458  1.00  0.00     0.174 HD
ATOM     41  N1    G A   2      11.754  64.696  52.946  1.00  0.00    -0.153 N 
ATOM     42  H1    G A   2      11.704  65.455  53.607  1.00  0.00     0.187 HD
ATOM     43  C6    G A   2      12.855  64.666  52.097  1.00  0.00     0.292 A 
ATOM     44  O6    G A   2      13.719  65.546  52.180  1.00  0.00    -0.265 OA
ATOM     45  C5    G A   2      12.805  63.551  51.219  1.00  0.00     0.173 A 
ATOM     46  N7    G A   2      13.685  63.148  50.224  1.00  0.00    -0.234 NA
ATOM     47  C8    G A   2      13.145  62.064  49.739  1.00  0.00     0.214 A 
ATOM     48  C2'   G A   2       9.772  60.941  49.448  1.00  0.00     0.199 C 
ATOM     49  O2'   G A   2       8.803  59.999  49.873  1.00  0.00    -0.388 OA
ATOM     50 'HO2   G A   2       8.226  59.843  49.127  1.00  0.00     0.210 HD
ATOM     51  C3'   G A   2      10.079  60.786  47.964  1.00  0.00     0.198 C 
ATOM     52  O3'   G A   2       8.904  60.577  47.185  1.00  0.00    -0.279 OA
ATOM     53  P     G A   3       8.147  61.837  46.527  1.00  0.00     0.408 P 
ATOM     54  OP1   G A   3       6.952  61.314  45.818  1.00  0.00    -0.624 OA
ATOM     55  OP2   G A   3       9.146  62.645  45.782  1.00  0.00    -0.624 OA
ATOM     56  O5'   G A   3       7.650  62.687  47.780  1.00  0.00    -0.287 OA
ATOM     57  C5'   G A   3       6.716  62.144  48.712  1.00  0.00     0.216 C 
ATOM     58  C4'   G A   3       6.031  63.257  49.476  1.00  0.00     0.180 C 
ATOM     59  O4'   G A   3       6.777  63.526  50.695  1.00  0.00    -0.353 OA
ATOM     60  C1'   G A   3       6.781  64.920  50.955  1.00  0.00     0.262 C 
ATOM     61  N9    G A   3       8.155  65.405  50.858  1.00  0.00    -0.293 N 
ATOM     62  C4    G A   3       8.660  66.548  51.430  1.00  0.00     0.187 A 
ATOM     63  N3    G A   3       7.972  67.425  52.190  1.00  0.00    -0.044 NA
ATOM     64  C2    G A   3       8.732  68.427  52.596  1.00  0.00     0.703 A 
ATOM     65  N2    G A   3       8.210  69.389  53.360  1.00  0.00    -0.233 N 
ATOM     66  H21   G A   3       7.236  69.340  53.620  1.00  0.00     0.174 HD
ATOM     67  H22   G A   3       8.786  70.157  53.675  1.00  0.00     0.174 HD
ATOM     68  N1    G A   3      10.060  68.559  52.283  1.00  0.00    -0.153 N 
ATOM     69  H1    G A   3      10.547  69.363  52.642  1.00  0.00     0.187 HD
ATOM     70  C6    G A   3      10.790  67.669  51.504  1.00  0.00     0.292 A 
ATOM     71  O6    G A   3      11.988  67.884  51.286  1.00  0.00    -0.265 OA
ATOM     72  C5    G A   3       9.988  66.586  51.059  1.00  0.00     0.173 A 
ATOM     73  N7    G A   3      10.311  65.490  50.271  1.00  0.00    -0.234 NA
ATOM     74  C8    G A   3       9.195  64.821  50.180  1.00  0.00     0.214 A 
ATOM     75  C2'   G A   3       5.837  65.569  49.944  1.00  0.00     0.199 C 
ATOM     76  O2'   G A   3       4.523  65.555  50.473  1.00  0.00    -0.388 OA
ATOM     77 'HO2   G A   3       3.947  65.272  49.762  1.00  0.00     0.210 HD
ATOM     78  C3'   G A   3       5.969  64.605  48.772  1.00  0.00     0.198 C 
ATOM     79  O3'   G A   3       4.869  64.684  47.870  1.00  0.00    -0.279 OA
ATOM     80  P     G A   4       4.915  65.725  46.645  1.00  0.00     0.408 P 
ATOM     81  OP1   G A   4       3.666  65.540  45.862  1.00  0.00    -0.624 OA
ATOM     82  OP2   G A   4       6.230  65.599  45.967  1.00  0.00    -0.624 OA
ATOM     83  O5'   G A   4       4.850  67.153  47.350  1.00  0.00    -0.287 OA
ATOM     84  C5'   G A   4       3.710  67.545  48.112  1.00  0.00     0.216 C 
ATOM     85  C4'   G A   4       3.912  68.927  48.684  1.00  0.00     0.180 C 
ATOM     86  O4'   G A   4       4.971  68.885  49.676  1.00  0.00    -0.353 OA
ATOM     87  C1'   G A   4       5.672  70.116  49.671  1.00  0.00     0.262 C 
ATOM     88  N9    G A   4       7.085  69.844  49.421  1.00  0.00    -0.293 N 
ATOM     89  C4    G A   4       8.136  70.678  49.708  1.00  0.00     0.187 A 
ATOM     90  N3    G A   4       8.047  71.902  50.268  1.00  0.00    -0.044 NA
ATOM     91  C2    G A   4       9.232  72.463  50.419  1.00  0.00     0.703 A 
ATOM     92  N2    G A   4       9.324  73.683  50.953  1.00  0.00    -0.233 N 
ATOM     93  H21   G A   4       8.481  74.161  51.237  1.00  0.00     0.174 HD
ATOM     94  H22   G A   4      10.226  74.124  51.070  1.00  0.00     0.174 HD
ATOM     95  N1    G A   4      10.413  71.871  50.054  1.00  0.00    -0.153 N 
ATOM     96  H1    G A   4      11.264  72.387  50.215  1.00  0.00     0.187 HD
ATOM     97  C6    G A   4      10.532  70.612  49.478  1.00  0.00     0.292 A 
ATOM     98  O6    G A   4      11.650  70.172  49.191  1.00  0.00    -0.265 OA
ATOM     99  C5    G A   4       9.265  69.997  49.304  1.00  0.00     0.173 A 
ATOM    100  N7    G A   4       8.930  68.760  48.772  1.00  0.00    -0.234 NA
ATOM    101  C8    G A   4       7.629  68.715  48.859  1.00  0.00     0.214 A 
ATOM    102  C2'   G A   4       5.028  71.017  48.617  1.00  0.00     0.199 C 
ATOM    103  O2'   G A   4       4.051  71.823  49.249  1.00  0.00    -0.388 OA
ATOM    104 'HO2   G A   4       3.257  71.755  48.720  1.00  0.00     0.210 HD
ATOM    105  C3'   G A   4       4.381  69.987  47.699  1.00  0.00     0.198 C 
ATOM    106  O3'   G A   4       3.297  70.528  46.949  1.00  0.00    -0.279 OA
ATOM    107  P     G A   5       3.578  71.215  45.522  1.00  0.00     0.408 P 
ATOM    108  OP1   G A   5       2.303  71.822  45.066  1.00  0.00    -0.624 OA
ATOM    109  OP2   G A   5       4.271  70.227  44.655  1.00  0.00    -0.624 OA
ATOM    110  O5'   G A   5       4.598  72.393  45.853  1.00  0.00    -0.287 OA
ATOM    111  C5'   G A   5       4.196  73.516  46.636  1.00  0.00     0.216 C 
ATOM    112  C4'   G A   5       5.306  74.538  46.692  1.00  0.00     0.180 C 
ATOM    113  O4'   G A   5       6.400  74.011  47.481  1.00  0.00    -0.353 OA
ATOM    114  C1'   G A   5       7.620  74.564  47.024  1.00  0.00     0.262 C 
ATOM    115  N9    G A   5       8.564  73.472  46.799  1.00  0.00    -0.293 N 
ATOM    116  C4    G A   5       9.934  73.566  46.807  1.00  0.00     0.187 A 
ATOM    117  N3    G A   5      10.652  74.686  47.029  1.00  0.00    -0.044 NA
ATOM    118  C2    G A   5      11.951  74.461  46.966  1.00  0.00     0.703 A 
ATOM    119  N2    G A   5      12.809  75.465  47.162  1.00  0.00    -0.233 N 
ATOM    120  H21   G A   5      12.456  76.389  47.357  1.00  0.00     0.174 HD
ATOM    121  H22   G A   5      13.805  75.301  47.106  1.00  0.00     0.174 HD
ATOM    122  N1    G A   5      12.507  73.236  46.706  1.00  0.00    -0.153 N 
ATOM    123  H1    G A   5      13.512  73.173  46.678  1.00  0.00     0.187 HD
ATOM    124  C6    G A   5      11.791  72.067  46.477  1.00  0.00     0.292 A 
ATOM    125  O6    G A   5      12.395  71.010  46.255  1.00  0.00    -0.265 OA
ATOM    126  C5    G A   5      10.390  72.291  46.540  1.00  0.00     0.173 A 
ATOM    127  N7    G A   5       9.327  71.413  46.373  1.00  0.00    -0.234 NA
ATOM    128  C8    G A   5       8.268  72.157  46.537  1.00  0.00     0.214 A 
ATOM    129  C2'   G A   5       7.332  75.390  45.766  1.00  0.00     0.199 C 
ATOM    130  O2'   G A   5       7.288  76.757  46.131  1.00  0.00    -0.388 OA
ATOM    131 'HO2   G A   5       7.895  77.217  45.551  1.00  0.00     0.210 HD
ATOM    132  C3'   G A   5       5.951  74.878  45.357  1.00  0.00     0.198 C 
ATOM    133  O3'   G A   5       5.189  75.855  44.652  1.00  0.00    -0.279 OA
ATOM    134  P     G A   6       5.587  76.247  43.144  1.00  0.00     0.408 P 
ATOM    135  OP1   G A   6       4.541  77.176  42.643  1.00  0.00    -0.624 OA
ATOM    136  OP2   G A   6       5.877  74.999  42.393  1.00  0.00    -0.624 OA
ATOM    137  O5'   G A   6       6.939  77.075  43.304  1.00  0.00    -0.287 OA
ATOM    138  C5'   G A   6       8.081  76.787  42.498  1.00  0.00     0.216 C 
ATOM    139  C4'   G A   6       9.297  77.493  43.051  1.00  0.00     0.180 C 
ATOM    140  O4'   G A   6       9.805  76.731  44.181  1.00  0.00    -0.353 OA
ATOM    141  C1'   G A   6      11.219  76.677  44.125  1.00  0.00     0.262 C 
ATOM    142  N9    G A   6      11.619  75.297  43.861  1.00  0.00    -0.293 N 
ATOM    143  C4    G A   6      12.903  74.836  43.703  1.00  0.00     0.187 A 
ATOM    144  N3    G A   6      14.026  75.581  43.767  1.00  0.00    -0.044 NA
ATOM    145  C2    G A   6      15.111  74.854  43.571  1.00  0.00     0.703 A 
ATOM    146  N2    G A   6      16.314  75.435  43.598  1.00  0.00    -0.233 N 
ATOM    147  H21   G A   6      16.381  76.428  43.769  1.00  0.00     0.174 HD
ATOM    148  H22   G A   6      17.148  74.887  43.442  1.00  0.00     0.174 HD
ATOM    149  N1    G A   6      15.098  73.505  43.334  1.00  0.00    -0.153 N 
ATOM    150  H1    G A   6      15.986  73.048  43.197  1.00  0.00     0.187 HD
ATOM    151  C6    G A   6      13.957  72.715  43.266  1.00  0.00     0.292 A 
ATOM    152  O6    G A   6      14.061  71.502  43.049  1.00  0.00    -0.265 OA
ATOM    153  C5    G A   6      12.780  73.482  43.471  1.00  0.00     0.173 A 
ATOM    154  N7    G A   6      11.445  73.100  43.485  1.00  0.00    -0.234 NA
ATOM    155  C8    G A   6      10.796  74.207  43.719  1.00  0.00     0.214 A 
ATOM    156  C2'   G A   6      11.667  77.661  43.046  1.00  0.00     0.199 C 
ATOM    157  O2'   G A   6      11.802  78.943  43.631  1.00  0.00    -0.388 OA
ATOM    158 'HO2   G A   6      11.635  79.580  42.936  1.00  0.00     0.210 HD
ATOM    159  C3'   G A   6      10.477  77.609  42.095  1.00  0.00     0.198 C 
ATOM    160  O3'   G A   6      10.382  78.774  41.278  1.00  0.00    -0.279 OA
ATOM    161  P     G A   7      10.967  78.749  39.779  1.00  0.00     0.408 P 
ATOM    162  OP1   G A   7      10.649  80.063  39.161  1.00  0.00    -0.624 OA
ATOM    163  OP2   G A   7      10.514  77.500  39.117  1.00  0.00    -0.624 OA
ATOM    164  O5'   G A   7      12.546  78.665  39.979  1.00  0.00    -0.287 OA
ATOM    165  C5'   G A   7      13.274  79.748  40.557  1.00  0.00     0.216 C 
ATOM    166  C4'   G A   7      14.747  79.416  40.616  1.00  0.00     0.180 C 
ATOM    167  O4'   G A   7      14.931  78.215  41.409  1.00  0.00    -0.353 OA
ATOM    168  C1'   G A   7      16.009  77.460  40.887  1.00  0.00     0.262 C 
ATOM    169  N9    G A   7      15.517  76.128  40.547  1.00  0.00    -0.293 N 
ATOM    170  C4    G A   7      16.283  75.032  40.231  1.00  0.00     0.187 A 
ATOM    171  N3    G A   7      17.630  74.997  40.174  1.00  0.00    -0.044 NA
ATOM    172  C2    G A   7      18.077  73.799  39.847  1.00  0.00     0.703 A 
ATOM    173  N2    G A   7      19.392  73.588  39.746  1.00  0.00    -0.233 N 
ATOM    174  H21   G A   7      20.030  74.350  39.922  1.00  0.00     0.174 HD
ATOM    175  H22   G A   7      19.743  72.674  39.499  1.00  0.00     0.174 HD
ATOM    176  N1    G A   7      17.271  72.720  39.596  1.00  0.00    -0.153 N 
ATOM    177  H1    G A   7      17.718  71.849  39.353  1.00  0.00     0.187 HD
ATOM    178  C6    G A   7      15.882  72.730  39.647  1.00  0.00     0.292 A 
ATOM    179  O6    G A   7      15.251  71.696  39.401  1.00  0.00    -0.265 OA
ATOM    180  C5    G A   7      15.383  74.012  39.998  1.00  0.00     0.173 A 
ATOM    181  N7    G A   7      14.078  74.460  40.161  1.00  0.00    -0.234 NA
ATOM    182  C8    G A   7      14.208  75.717  40.483  1.00  0.00     0.214 A 
ATOM    183  C2'   G A   7      16.587  78.226  39.695  1.00  0.00     0.199 C 
ATOM    184  O2'   G A   7      17.664  79.023  40.152  1.00  0.00    -0.388 OA
ATOM    185 'HO2   G A   7      17.834  79.677  39.473  1.00  0.00     0.210 HD
ATOM    186  C3'   G A   7      15.399  79.088  39.281  1.00  0.00     0.198 C 
ATOM    187  O3'   G A   7      15.800  80.269  38.592  1.00  0.00    -0.279 OA
ATOM    188  P     U A   8      15.863  80.276  36.985  1.00  0.00     0.408 P 
ATOM    189  OP1   U A   8      16.400  81.595  36.569  1.00  0.00    -0.624 OA
ATOM    190  OP2   U A   8      14.551  79.818  36.460  1.00  0.00    -0.624 OA
ATOM    191  O5'   U A   8      16.952  79.165  36.637  1.00  0.00    -0.287 OA
ATOM    192  C5'   U A   8      18.345  79.420  36.806  1.00  0.00     0.216 C 
ATOM    193  C4'   U A   8      19.150  78.209  36.400  1.00  0.00     0.180 C 
ATOM    194  O4'   U A   8      18.802  77.099  37.273  1.00  0.00    -0.353 OA
ATOM    195  C1'   U A   8      18.711  75.905  36.518  1.00  0.00     0.264 C 
ATOM    196  N1    U A   8      17.317  75.437  36.554  1.00  0.00    -0.280 N 
ATOM    197  C6    U A   8      16.269  76.320  36.690  1.00  0.00     0.104 A 
ATOM    198  C2    U A   8      17.093  74.078  36.444  1.00  0.00     0.331 A 
ATOM    199  O2    U A   8      17.995  73.266  36.326  1.00  0.00    -0.246 OA
ATOM    200  N3    U A   8      15.774  73.703  36.478  1.00  0.00    -0.275 N 
ATOM    201  H3    U A   8      15.578  72.717  36.405  1.00  0.00     0.173 HD
ATOM    202  C4    U A   8      14.682  74.529  36.609  1.00  0.00     0.250 A 
ATOM    203  O4    U A   8      13.552  74.040  36.606  1.00  0.00    -0.268 OA
ATOM    204  C5    U A   8      14.995  75.918  36.722  1.00  0.00     0.092 A 
ATOM    205  C2'   U A   8      19.215  76.213  35.109  1.00  0.00     0.199 C 
ATOM    206  O2'   U A   8      20.612  75.996  35.069  1.00  0.00    -0.388 OA
ATOM    207 'HO2   U A   8      20.999  76.785  34.689  1.00  0.00     0.210 HD
ATOM    208  C3'   U A   8      18.882  77.695  34.993  1.00  0.00     0.198 C 
ATOM    209  O3'   U A   8      19.692  78.364  34.031  1.00  0.00    -0.279 OA
ATOM    210  P     A A   9      19.279  78.330  32.477  1.00  0.00     0.408 P 
ATOM    211  OP1   A A   9      20.169  79.279  31.761  1.00  0.00    -0.624 OA
ATOM    212  OP2   A A   9      17.806  78.491  32.380  1.00  0.00    -0.624 OA
ATOM    213  O5'   A A   9      19.648  76.849  32.016  1.00  0.00    -0.287 OA
ATOM    214  C5'   A A   9      21.007  76.439  31.867  1.00  0.00     0.216 C 
ATOM    215  C4'   A A   9      21.092  75.254  30.934  1.00  0.00     0.180 C 
ATOM    216  O4'   A A   9      20.907  74.032  31.708  1.00  0.00    -0.353 OA
ATOM    217  C1'   A A   9      20.032  73.156  31.015  1.00  0.00     0.262 C 
ATOM    218  N9    A A   9      18.759  73.109  31.735  1.00  0.00    -0.294 N 
ATOM    219  C4    A A   9      18.040  71.981  32.048  1.00  0.00     0.167 A 
ATOM    220  N3    A A   9      18.355  70.705  31.763  1.00  0.00    -0.222 NA
ATOM    221  C2    A A   9      17.420  69.877  32.222  1.00  0.00     0.237 A 
ATOM    222  N1    A A   9      16.291  70.158  32.884  1.00  0.00    -0.222 NA
ATOM    223  C6    A A   9      16.003  71.448  33.154  1.00  0.00     0.155 A 
ATOM    224  N6    A A   9      14.878  71.726  33.812  1.00  0.00    -0.382 N 
ATOM    225  H61   A A   9      14.638  72.682  34.026  1.00  0.00     0.157 HD
ATOM    226  H62   A A   9      14.270  70.974  34.100  1.00  0.00     0.157 HD
ATOM    227  C5    A A   9      16.915  72.425  32.720  1.00  0.00     0.149 A 
ATOM    228  N7    A A   9      16.925  73.809  32.831  1.00  0.00    -0.236 NA
ATOM    229  C8    A A   9      18.035  74.165  32.233  1.00  0.00     0.214 A 
ATOM    230  C2'   A A   9      19.921  73.694  29.591  1.00  0.00     0.199 C 
ATOM    231  O2'   A A   9      21.021  73.170  28.871  1.00  0.00    -0.388 OA
ATOM    232 'HO2   A A   9      21.816  73.452  29.322  1.00  0.00     0.210 HD
ATOM    233  C3'   A A   9      20.013  75.192  29.860  1.00  0.00     0.198 C 
ATOM    234  O3'   A A   9      20.319  76.024  28.730  1.00  0.00    -0.279 OA
ATOM    235  P     G A  10      21.466  75.607  27.676  1.00  0.00     0.408 P 
ATOM    236  OP1   G A  10      22.586  74.945  28.395  1.00  0.00    -0.624 OA
ATOM    237  OP2   G A  10      21.746  76.810  26.850  1.00  0.00    -0.624 OA
ATOM    238  O5'   G A  10      20.752  74.539  26.733  1.00  0.00    -0.287 OA
ATOM    239  C5'   G A  10      19.420  74.747  26.265  1.00  0.00     0.216 C 
ATOM    240  C4'   G A  10      18.680  73.431  26.193  1.00  0.00     0.180 C 
ATOM    241  O4'   G A  10      18.237  73.064  27.528  1.00  0.00    -0.353 OA
ATOM    242  C1'   G A  10      16.949  72.478  27.460  1.00  0.00     0.262 C 
ATOM    243  N9    G A  10      16.010  73.342  28.168  1.00  0.00    -0.293 N 
ATOM    244  C4    G A  10      14.913  72.938  28.888  1.00  0.00     0.187 A 
ATOM    245  N3    G A  10      14.518  71.663  29.083  1.00  0.00    -0.044 NA
ATOM    246  C2    G A  10      13.419  71.593  29.811  1.00  0.00     0.703 A 
ATOM    247  N2    G A  10      12.891  70.400  30.103  1.00  0.00    -0.233 N 
ATOM    248  H21   G A  10      13.344  69.566  29.760  1.00  0.00     0.174 HD
ATOM    249  H22   G A  10      12.046  70.335  30.652  1.00  0.00     0.174 HD
ATOM    250  N1    G A  10      12.757  72.685  30.309  1.00  0.00    -0.153 N 
ATOM    251  H1    G A  10      11.922  72.518  30.850  1.00  0.00     0.187 HD
ATOM    252  C6    G A  10      13.145  74.008  30.125  1.00  0.00     0.292 A 
ATOM    253  O6    G A  10      12.474  74.920  30.621  1.00  0.00    -0.265 OA
ATOM    254  C5    G A  10      14.326  74.100  29.344  1.00  0.00     0.173 A 
ATOM    255  N7    G A  10      15.045  75.213  28.926  1.00  0.00    -0.234 NA
ATOM    256  C8    G A  10      16.035  74.713  28.237  1.00  0.00     0.214 A 
ATOM    257  C2'   G A  10      16.609  72.297  25.981  1.00  0.00     0.199 C 
ATOM    258  O2'   G A  10      17.100  71.041  25.549  1.00  0.00    -0.388 OA
ATOM    259 'HO2   G A  10      17.843  71.221  24.972  1.00  0.00     0.210 HD
ATOM    260  C3'   G A  10      17.402  73.442  25.365  1.00  0.00     0.198 C 
ATOM    261  O3'   G A  10      17.664  73.242  23.979  1.00  0.00    -0.279 OA
ATOM    262  P     C A  11      16.719  73.939  22.878  1.00  0.00     0.408 P 
ATOM    263  OP1   C A  11      17.312  73.665  21.545  1.00  0.00    -0.624 OA
ATOM    264  OP2   C A  11      16.469  75.343  23.295  1.00  0.00    -0.624 OA
ATOM    265  O5'   C A  11      15.345  73.140  22.986  1.00  0.00    -0.287 OA
ATOM    266  C5'   C A  11      15.269  71.758  22.637  1.00  0.00     0.216 C 
ATOM    267  C4'   C A  11      13.838  71.274  22.710  1.00  0.00     0.180 C 
ATOM    268  O4'   C A  11      13.405  71.286  24.098  1.00  0.00    -0.353 OA
ATOM    269  C1'   C A  11      12.060  71.728  24.177  1.00  0.00     0.264 C 
ATOM    270  N1    C A  11      12.035  73.010  24.902  1.00  0.00    -0.278 N 
ATOM    271  C6    C A  11      13.151  73.797  24.969  1.00  0.00     0.102 A 
ATOM    272  C2    C A  11      10.850  73.413  25.526  1.00  0.00     0.352 A 
ATOM    273  O2    C A  11       9.849  72.685  25.448  1.00  0.00    -0.244 OA
ATOM    274  N3    C A  11      10.821  74.585  26.197  1.00  0.00    -0.177 NA
ATOM    275  C4    C A  11      11.916  75.345  26.257  1.00  0.00     0.128 A 
ATOM    276  N4    C A  11      11.841  76.493  26.928  1.00  0.00    -0.384 N 
ATOM    277  H41   C A  11      12.649  77.095  26.995  1.00  0.00     0.157 HD
ATOM    278  H42   C A  11      10.973  76.759  27.373  1.00  0.00     0.157 HD
ATOM    279  C5    C A  11      13.137  74.961  25.630  1.00  0.00     0.067 A 
ATOM    280  C2'   C A  11      11.532  71.816  22.747  1.00  0.00     0.199 C 
ATOM    281  O2'   C A  11      11.016  70.552  22.376  1.00  0.00    -0.388 OA
ATOM    282 'HO2   C A  11      11.536  70.245  21.634  1.00  0.00     0.210 HD
ATOM    283  C3'   C A  11      12.811  72.134  21.985  1.00  0.00     0.198 C 
ATOM    284  O3'   C A  11      12.723  71.796  20.603  1.00  0.00    -0.279 OA
ATOM    285  P     C A  12      12.030  72.819  19.573  1.00  0.00     0.408 P 
ATOM    286  OP1   C A  12      12.150  72.230  18.215  1.00  0.00    -0.624 OA
ATOM    287  OP2   C A  12      12.561  74.181  19.833  1.00  0.00    -0.624 OA
ATOM    288  O5'   C A  12      10.490  72.802  19.987  1.00  0.00    -0.287 OA
ATOM    289  C5'   C A  12       9.717  71.608  19.892  1.00  0.00     0.216 C 
ATOM    290  C4'   C A  12       8.361  71.810  20.529  1.00  0.00     0.180 C 
ATOM    291  O4'   C A  12       8.536  72.159  21.929  1.00  0.00    -0.353 OA
ATOM    292  C1'   C A  12       7.533  73.083  22.319  1.00  0.00     0.264 C 
ATOM    293  N1    C A  12       8.191  74.323  22.761  1.00  0.00    -0.278 N 
ATOM    294  C6    C A  12       9.415  74.684  22.271  1.00  0.00     0.102 A 
ATOM    295  C2    C A  12       7.541  75.133  23.695  1.00  0.00     0.352 A 
ATOM    296  O2    C A  12       6.432  74.784  24.124  1.00  0.00    -0.244 OA
ATOM    297  N3    C A  12       8.133  76.276  24.107  1.00  0.00    -0.177 NA
ATOM    298  C4    C A  12       9.330  76.616  23.626  1.00  0.00     0.128 A 
ATOM    299  N4    C A  12       9.877  77.749  24.064  1.00  0.00    -0.384 N 
ATOM    300  H41   C A  12      10.781  78.042  23.724  1.00  0.00     0.157 HD
ATOM    301  H42   C A  12       9.380  78.315  24.740  1.00  0.00     0.157 HD
ATOM    302  C5    C A  12      10.018  75.809  22.673  1.00  0.00     0.067 A 
ATOM    303  C2'   C A  12       6.597  73.275  21.125  1.00  0.00     0.199 C 
ATOM    304  O2'   C A  12       5.548  72.328  21.215  1.00  0.00    -0.388 OA
ATOM    305 'HO2   C A  12       5.487  71.905  20.358  1.00  0.00     0.210 HD
ATOM    306  C3'   C A  12       7.530  72.954  19.966  1.00  0.00     0.198 C 
ATOM    307  O3'   C A  12       6.826  72.568  18.789  1.00  0.00    -0.279 OA
ATOM    308  P     A A  13       6.422  73.682  17.700  1.00  0.00     0.408 P 
ATOM    309  OP1   A A  13       5.766  72.974  16.570  1.00  0.00    -0.624 OA
ATOM    310  OP2   A A  13       7.606  74.539  17.439  1.00  0.00    -0.624 OA
ATOM    311  O5'   A A  13       5.320  74.563  18.441  1.00  0.00    -0.287 OA
ATOM    312  C5'   A A  13       4.077  73.993  18.846  1.00  0.00     0.216 C 
ATOM    313  C4'   A A  13       3.259  75.008  19.609  1.00  0.00     0.180 C 
ATOM    314  O4'   A A  13       3.893  75.273  20.888  1.00  0.00    -0.353 OA
ATOM    315  C1'   A A  13       3.637  76.612  21.274  1.00  0.00     0.262 C 
ATOM    316  N9    A A  13       4.920  77.275  21.513  1.00  0.00    -0.294 N 
ATOM    317  C4    A A  13       5.139  78.334  22.359  1.00  0.00     0.167 A 
ATOM    318  N3    A A  13       4.233  78.966  23.124  1.00  0.00    -0.222 NA
ATOM    319  C2    A A  13       4.807  79.950  23.814  1.00  0.00     0.237 A 
ATOM    320  N1    A A  13       6.087  80.341  23.826  1.00  0.00    -0.222 NA
ATOM    321  C6    A A  13       6.972  79.682  23.048  1.00  0.00     0.155 A 
ATOM    322  N6    A A  13       8.247  80.071  23.067  1.00  0.00    -0.382 N 
ATOM    323  H61   A A  13       8.928  79.593  22.496  1.00  0.00     0.157 HD
ATOM    324  H62   A A  13       8.521  80.847  23.651  1.00  0.00     0.157 HD
ATOM    325  C5    A A  13       6.489  78.620  22.264  1.00  0.00     0.149 A 
ATOM    326  N7    A A  13       7.112  77.756  21.373  1.00  0.00    -0.236 NA
ATOM    327  C8    A A  13       6.140  76.981  20.955  1.00  0.00     0.214 A 
ATOM    328  C2'   A A  13       2.803  77.264  20.170  1.00  0.00     0.199 C 
ATOM    329  O2'   A A  13       1.434  77.148  20.509  1.00  0.00    -0.388 OA
ATOM    330 'HO2   A A  13       0.989  76.806  19.732  1.00  0.00     0.210 HD
ATOM    331  C3'   A A  13       3.144  76.385  18.973  1.00  0.00     0.198 C 
ATOM    332  O3'   A A  13       2.137  76.419  17.966  1.00  0.00    -0.279 OA
ATOM    333  P     A A  14       2.175  77.562  16.834  1.00  0.00     0.408 P 
ATOM    334  OP1   A A  14       1.141  77.217  15.826  1.00  0.00    -0.624 OA
ATOM    335  OP2   A A  14       3.583  77.754  16.403  1.00  0.00    -0.624 OA
ATOM    336  O5'   A A  14       1.703  78.880  17.597  1.00  0.00    -0.287 OA
ATOM    337  C5'   A A  14       0.400  78.972  18.172  1.00  0.00     0.216 C 
ATOM    338  C4'   A A  14       0.360  80.072  19.207  1.00  0.00     0.180 C 
ATOM    339  O4'   A A  14       1.611  80.063  19.954  1.00  0.00    -0.353 OA
ATOM    340  C1'   A A  14       2.295  81.285  19.757  1.00  0.00     0.262 C 
ATOM    341  N9    A A  14       3.724  80.999  19.638  1.00  0.00    -0.294 N 
ATOM    342  C4    A A  14       4.739  81.607  20.336  1.00  0.00     0.167 A 
ATOM    343  N3    A A  14       4.628  82.576  21.261  1.00  0.00    -0.222 NA
ATOM    344  C2    A A  14       5.825  82.922  21.726  1.00  0.00     0.237 A 
ATOM    345  N1    A A  14       7.033  82.445  21.394  1.00  0.00    -0.222 NA
ATOM    346  C6    A A  14       7.109  81.471  20.462  1.00  0.00     0.155 A 
ATOM    347  N6    A A  14       8.311  80.996  20.133  1.00  0.00    -0.382 N 
ATOM    348  H61   A A  14       8.388  80.267  19.439  1.00  0.00     0.157 HD
ATOM    349  H62   A A  14       9.137  81.369  20.576  1.00  0.00     0.157 HD
ATOM    350  C5    A A  14       5.908  81.016  19.892  1.00  0.00     0.149 A 
ATOM    351  N7    A A  14       5.636  80.052  18.932  1.00  0.00    -0.236 NA
ATOM    352  C8    A A  14       4.331  80.082  18.818  1.00  0.00     0.214 A 
ATOM    353  C2'   A A  14       1.683  81.930  18.516  1.00  0.00     0.199 C 
ATOM    354  O2'   A A  14       1.807  83.336  18.623  1.00  0.00    -0.388 OA
ATOM    355 'HO2   A A  14       1.249  83.614  19.351  1.00  0.00     0.210 HD
ATOM    356  C3'   A A  14       0.232  81.486  18.647  1.00  0.00     0.198 C 
ATOM    357  O3'   A A  14      -0.513  82.323  19.528  1.00  0.00    -0.279 OA
ATOM    358  P     G A  15      -1.647  83.299  18.939  1.00  0.00     0.408 P 
ATOM    359  OP1   G A  15      -2.957  82.632  19.156  1.00  0.00    -0.624 OA
ATOM    360  OP2   G A  15      -1.255  83.715  17.569  1.00  0.00    -0.624 OA
ATOM    361  O5'   G A  15      -1.586  84.579  19.887  1.00  0.00    -0.287 OA
ATOM    362  C5'   G A  15      -1.601  84.447  21.311  1.00  0.00     0.216 C 
ATOM    363  C4'   G A  15      -0.236  84.028  21.812  1.00  0.00     0.180 C 
ATOM    364  O4'   G A  15       0.785  84.603  20.949  1.00  0.00    -0.353 OA
ATOM    365  C1'   G A  15       1.883  85.040  21.732  1.00  0.00     0.262 C 
ATOM    366  N9    G A  15       1.976  86.493  21.620  1.00  0.00    -0.293 N 
ATOM    367  C4    G A  15       3.092  87.260  21.850  1.00  0.00     0.187 A 
ATOM    368  N3    G A  15       4.309  86.803  22.216  1.00  0.00    -0.044 NA
ATOM    369  C2    G A  15       5.180  87.784  22.364  1.00  0.00     0.703 A 
ATOM    370  N2    G A  15       6.435  87.504  22.726  1.00  0.00    -0.233 N 
ATOM    371  H21   G A  15       6.703  86.543  22.880  1.00  0.00     0.174 HD
ATOM    372  H22   G A  15       7.109  88.245  22.850  1.00  0.00     0.174 HD
ATOM    373  N1    G A  15       4.887  89.109  22.171  1.00  0.00    -0.153 N 
ATOM    374  H1    G A  15       5.626  89.779  22.312  1.00  0.00     0.187 HD
ATOM    375  C6    G A  15       3.645  89.605  21.795  1.00  0.00     0.292 A 
ATOM    376  O6    G A  15       3.488  90.822  21.648  1.00  0.00    -0.265 OA
ATOM    377  C5    G A  15       2.694  88.563  21.631  1.00  0.00     0.173 A 
ATOM    378  N7    G A  15       1.355  88.612  21.266  1.00  0.00    -0.234 NA
ATOM    379  C8    G A  15       0.974  87.364  21.272  1.00  0.00     0.214 A 
ATOM    380  C2'   G A  15       1.648  84.551  23.160  1.00  0.00     0.199 C 
ATOM    381  O2'   G A  15       2.193  83.251  23.293  1.00  0.00    -0.388 OA
ATOM    382 'HO2   G A  15       1.492  82.691  23.628  1.00  0.00     0.210 HD
ATOM    383  C3'   G A  15       0.126  84.517  23.209  1.00  0.00     0.198 C 
ATOM    384  O3'   G A  15      -0.365  83.640  24.220  1.00  0.00    -0.279 OA
ATOM    385  P     U A  16      -0.406  84.132  25.752  1.00  0.00     0.408 P 
ATOM    386  OP1   U A  16      -0.357  82.917  26.603  1.00  0.00    -0.624 OA
ATOM    387  OP2   U A  16      -1.535  85.086  25.902  1.00  0.00    -0.624 OA
ATOM    388  O5'   U A  16       0.955  84.941  25.936  1.00  0.00    -0.287 OA
ATOM    389  C5'   U A  16       1.731  84.830  27.131  1.00  0.00     0.216 C 
ATOM    390  C4'   U A  16       3.207  84.853  26.799  1.00  0.00     0.180 C 
ATOM    391  O4'   U A  16       3.381  85.455  25.483  1.00  0.00    -0.353 OA
ATOM    392  C1'   U A  16       4.396  86.438  25.534  1.00  0.00     0.264 C 
ATOM    393  N1    U A  16       3.762  87.763  25.440  1.00  0.00    -0.280 N 
ATOM    394  C6    U A  16       2.392  87.904  25.486  1.00  0.00     0.104 A 
ATOM    395  C2    U A  16       4.587  88.866  25.303  1.00  0.00     0.331 A 
ATOM    396  O2    U A  16       5.801  88.785  25.257  1.00  0.00    -0.246 OA
ATOM    397  N3    U A  16       3.935  90.070  25.221  1.00  0.00    -0.275 N 
ATOM    398  H3    U A  16       4.512  90.890  25.117  1.00  0.00     0.173 HD
ATOM    399  C4    U A  16       2.576  90.282  25.262  1.00  0.00     0.250 A 
ATOM    400  O4    U A  16       2.143  91.431  25.189  1.00  0.00    -0.268 OA
ATOM    401  C5    U A  16       1.793  89.096  25.403  1.00  0.00     0.092 A 
ATOM    402  C2'   U A  16       5.173  86.206  26.826  1.00  0.00     0.199 C 
ATOM    403  O2'   U A  16       6.158  85.218  26.589  1.00  0.00    -0.388 OA
ATOM    404 'HO2   U A  16       5.864  84.417  27.026  1.00  0.00     0.210 HD
ATOM    405  C3'   U A  16       4.072  85.687  27.742  1.00  0.00     0.198 C 
ATOM    406  O3'   U A  16       4.590  84.899  28.811  1.00  0.00    -0.279 OA
ATOM    407  P     G A  17       3.741  84.729  30.169  1.00  0.00     0.408 P 
ATOM    408  OP1   G A  17       2.760  85.842  30.238  1.00  0.00    -0.624 OA
ATOM    409  OP2   G A  17       4.700  84.526  31.286  1.00  0.00    -0.624 OA
ATOM    410  O5'   G A  17       2.932  83.373  29.950  1.00  0.00    -0.287 OA
ATOM    411  C5'   G A  17       2.597  82.528  31.050  1.00  0.00     0.216 C 
ATOM    412  C4'   G A  17       2.132  81.177  30.552  1.00  0.00     0.180 C 
ATOM    413  O4'   G A  17       2.347  81.097  29.116  1.00  0.00    -0.353 OA
ATOM    414  C1'   G A  17       2.776  79.792  28.769  1.00  0.00     0.262 C 
ATOM    415  N9    G A  17       4.120  79.881  28.208  1.00  0.00    -0.293 N 
ATOM    416  C4    G A  17       4.707  78.975  27.359  1.00  0.00     0.187 A 
ATOM    417  N3    G A  17       4.139  77.845  26.891  1.00  0.00    -0.044 NA
ATOM    418  C2    G A  17       4.952  77.178  26.094  1.00  0.00     0.703 A 
ATOM    419  N2    G A  17       4.544  76.033  25.541  1.00  0.00    -0.233 N 
ATOM    420  H21   G A  17       3.616  75.688  25.739  1.00  0.00     0.174 HD
ATOM    421  H22   G A  17       5.159  75.513  24.931  1.00  0.00     0.174 HD
ATOM    422  N1    G A  17       6.224  77.582  25.780  1.00  0.00    -0.153 N 
ATOM    423  H1    G A  17       6.763  76.998  25.160  1.00  0.00     0.187 HD
ATOM    424  C6    G A  17       6.833  78.741  26.249  1.00  0.00     0.292 A 
ATOM    425  O6    G A  17       7.988  79.013  25.903  1.00  0.00    -0.265 OA
ATOM    426  C5    G A  17       5.969  79.473  27.108  1.00  0.00     0.173 A 
ATOM    427  N7    G A  17       6.171  80.670  27.784  1.00  0.00    -0.234 NA
ATOM    428  C8    G A  17       5.049  80.870  28.420  1.00  0.00     0.214 A 
ATOM    429  C2'   G A  17       2.702  78.931  30.029  1.00  0.00     0.199 C 
ATOM    430  O2'   G A  17       1.421  78.333  30.095  1.00  0.00    -0.388 OA
ATOM    431 'HO2   G A  17       1.560  77.388  30.173  1.00  0.00     0.210 HD
ATOM    432  C3'   G A  17       2.890  79.982  31.115  1.00  0.00     0.198 C 
ATOM    433  O3'   G A  17       2.362  79.567  32.373  1.00  0.00    -0.279 OA
ATOM    434  P     G A  18       3.236  78.614  33.330  1.00  0.00     0.408 P 
ATOM    435  OP1   G A  18       2.474  78.437  34.593  1.00  0.00    -0.624 OA
ATOM    436  OP2   G A  18       4.625  79.137  33.379  1.00  0.00    -0.624 OA
ATOM    437  O5'   G A  18       3.261  77.214  32.567  1.00  0.00    -0.287 OA
ATOM    438  C5'   G A  18       2.125  76.352  32.574  1.00  0.00     0.216 C 
ATOM    439  C4'   G A  18       2.352  75.180  31.648  1.00  0.00     0.180 C 
ATOM    440  O4'   G A  18       2.828  75.670  30.367  1.00  0.00    -0.353 OA
ATOM    441  C1'   G A  18       3.724  74.729  29.802  1.00  0.00     0.262 C 
ATOM    442  N9    G A  18       4.998  75.394  29.552  1.00  0.00    -0.293 N 
ATOM    443  C4    G A  18       5.979  74.974  28.686  1.00  0.00     0.187 A 
ATOM    444  N3    G A  18       5.931  73.870  27.912  1.00  0.00    -0.044 NA
ATOM    445  C2    G A  18       7.028  73.728  27.188  1.00  0.00     0.703 A 
ATOM    446  N2    G A  18       7.149  72.682  26.368  1.00  0.00    -0.233 N 
ATOM    447  H21   G A  18       6.400  72.010  26.308  1.00  0.00     0.174 HD
ATOM    448  H22   G A  18       7.986  72.564  25.813  1.00  0.00     0.174 HD
ATOM    449  N1    G A  18       8.086  74.599  27.220  1.00  0.00    -0.153 N 
ATOM    450  H1    G A  18       8.875  74.397  26.626  1.00  0.00     0.187 HD
ATOM    451  C6    G A  18       8.156  75.744  28.005  1.00  0.00     0.292 A 
ATOM    452  O6    G A  18       9.160  76.464  27.953  1.00  0.00    -0.265 OA
ATOM    453  C5    G A  18       6.986  75.910  28.791  1.00  0.00     0.173 A 
ATOM    454  N7    G A  18       6.646  76.899  29.705  1.00  0.00    -0.234 NA
ATOM    455  C8    G A  18       5.462  76.550  30.129  1.00  0.00     0.214 A 
ATOM    456  C2'   G A  18       3.838  73.548  30.770  1.00  0.00     0.199 C 
ATOM    457  O2'   G A  18       2.914  72.550  30.379  1.00  0.00    -0.388 OA
ATOM    458 'HO2   G A  18       2.342  72.401  31.133  1.00  0.00     0.210 HD
ATOM    459  C3'   G A  18       3.423  74.193  32.088  1.00  0.00     0.198 C 
ATOM    460  O3'   G A  18       2.911  73.240  33.017  1.00  0.00    -0.279 OA
ATOM    461  P     C A  19       3.906  72.527  34.063  1.00  0.00     0.408 P 
ATOM    462  OP1   C A  19       3.107  71.549  34.843  1.00  0.00    -0.624 OA
ATOM    463  OP2   C A  19       4.670  73.584  34.774  1.00  0.00    -0.624 OA
ATOM    464  O5'   C A  19       4.920  71.714  33.142  1.00  0.00    -0.287 OA
ATOM    465  C5'   C A  19       4.462  70.666  32.286  1.00  0.00     0.216 C 
ATOM    466  C4'   C A  19       5.631  69.841  31.798  1.00  0.00     0.180 C 
ATOM    467  O4'   C A  19       6.574  70.723  31.125  1.00  0.00    -0.353 OA
ATOM    468  C1'   C A  19       7.801  70.733  31.827  1.00  0.00     0.264 C 
ATOM    469  N1    C A  19       8.322  72.108  31.839  1.00  0.00    -0.278 N 
ATOM    470  C6    C A  19       7.561  73.141  32.312  1.00  0.00     0.102 A 
ATOM    471  C2    C A  19       9.614  72.344  31.364  1.00  0.00     0.352 A 
ATOM    472  O2    C A  19      10.279  71.392  30.927  1.00  0.00    -0.244 OA
ATOM    473  N3    C A  19      10.108  73.600  31.390  1.00  0.00    -0.177 NA
ATOM    474  C4    C A  19       9.362  74.599  31.863  1.00  0.00     0.128 A 
ATOM    475  N4    C A  19       9.901  75.817  31.883  1.00  0.00    -0.384 N 
ATOM    476  H41   C A  19       9.378  76.606  32.235  1.00  0.00     0.157 HD
ATOM    477  H42   C A  19      10.847  75.938  31.550  1.00  0.00     0.157 HD
ATOM    478  C5    C A  19       8.036  74.391  32.342  1.00  0.00     0.067 A 
ATOM    479  C2'   C A  19       7.515  70.172  33.217  1.00  0.00     0.199 C 
ATOM    480  O2'   C A  19       8.687  69.550  33.709  1.00  0.00    -0.388 OA
ATOM    481 'HO2   C A  19       8.640  68.629  33.450  1.00  0.00     0.210 HD
ATOM    482  C3'   C A  19       6.437  69.147  32.894  1.00  0.00     0.198 C 
ATOM    483  O3'   C A  19       6.998  67.916  32.444  1.00  0.00    -0.279 OA
ATOM    484  P     C A  20       6.224  66.530  32.717  1.00  0.00     0.408 P 
ATOM    485  OP1   C A  20       5.160  66.786  33.722  1.00  0.00    -0.624 OA
ATOM    486  OP2   C A  20       7.243  65.483  32.981  1.00  0.00    -0.624 OA
ATOM    487  O5'   C A  20       5.521  66.202  31.325  1.00  0.00    -0.287 OA
ATOM    488  C5'   C A  20       6.064  66.677  30.095  1.00  0.00     0.216 C 
ATOM    489  C4'   C A  20       6.103  65.560  29.077  1.00  0.00     0.180 C 
ATOM    490  O4'   C A  20       5.075  65.810  28.077  1.00  0.00    -0.353 OA
ATOM    491  C1'   C A  20       5.672  65.970  26.806  1.00  0.00     0.264 C 
ATOM    492  N1    C A  20       4.950  67.030  26.085  1.00  0.00    -0.278 N 
ATOM    493  C6    C A  20       4.863  68.294  26.599  1.00  0.00     0.102 A 
ATOM    494  C2    C A  20       4.351  66.724  24.860  1.00  0.00     0.352 A 
ATOM    495  O2    C A  20       4.448  65.571  24.417  1.00  0.00    -0.244 OA
ATOM    496  N3    C A  20       3.684  67.690  24.191  1.00  0.00    -0.177 NA
ATOM    497  C4    C A  20       3.603  68.919  24.702  1.00  0.00     0.128 A 
ATOM    498  N4    C A  20       2.933  69.838  24.008  1.00  0.00    -0.384 N 
ATOM    499  H41   C A  20       2.851  70.780  24.364  1.00  0.00     0.157 HD
ATOM    500  H42   C A  20       2.510  69.591  23.126  1.00  0.00     0.157 HD
ATOM    501  C5    C A  20       4.206  69.261  25.947  1.00  0.00     0.067 A 
ATOM    502  C2'   C A  20       7.148  66.273  27.053  1.00  0.00     0.199 C 
ATOM    503  O2'   C A  20       7.902  65.800  25.955  1.00  0.00    -0.388 OA
ATOM    504 'HO2   C A  20       8.280  64.961  26.220  1.00  0.00     0.210 HD
ATOM    505  C3'   C A  20       7.411  65.440  28.302  1.00  0.00     0.198 C 
ATOM    506  O3'   C A  20       7.714  64.082  27.991  1.00  0.00    -0.279 OA
ATOM    507  P     A A  21       8.795  63.282  28.873  1.00  0.00     0.408 P 
ATOM    508  OP1   A A  21       8.727  63.813  30.259  1.00  0.00    -0.624 OA
ATOM    509  OP2   A A  21       8.603  61.829  28.634  1.00  0.00    -0.624 OA
ATOM    510  O5'   A A  21      10.197  63.714  28.250  1.00  0.00    -0.287 OA
ATOM    511  C5'   A A  21      10.602  63.260  26.958  1.00  0.00     0.216 C 
ATOM    512  C4'   A A  21      12.051  63.612  26.713  1.00  0.00     0.180 C 
ATOM    513  O4'   A A  21      12.129  65.017  26.346  1.00  0.00    -0.353 OA
ATOM    514  C1'   A A  21      12.781  65.746  27.368  1.00  0.00     0.262 C 
ATOM    515  N9    A A  21      12.020  66.971  27.613  1.00  0.00    -0.294 N 
ATOM    516  C4    A A  21      12.423  68.253  27.331  1.00  0.00     0.167 A 
ATOM    517  N3    A A  21      13.586  68.642  26.780  1.00  0.00    -0.222 NA
ATOM    518  C2    A A  21      13.627  69.966  26.656  1.00  0.00     0.237 A 
ATOM    519  N1    A A  21      12.706  70.879  26.995  1.00  0.00    -0.222 NA
ATOM    520  C6    A A  21      11.550  70.455  27.547  1.00  0.00     0.155 A 
ATOM    521  N6    A A  21      10.636  71.363  27.886  1.00  0.00    -0.382 N 
ATOM    522  H61   A A  21       9.764  71.069  28.301  1.00  0.00     0.157 HD
ATOM    523  H62   A A  21      10.823  72.343  27.733  1.00  0.00     0.157 HD
ATOM    524  C5    A A  21      11.381  69.071  27.731  1.00  0.00     0.149 A 
ATOM    525  N7    A A  21      10.340  68.319  28.258  1.00  0.00    -0.236 NA
ATOM    526  C8    A A  21      10.769  67.084  28.165  1.00  0.00     0.214 A 
ATOM    527  C2'   A A  21      12.882  64.829  28.585  1.00  0.00     0.199 C 
ATOM    528  O2'   A A  21      14.069  65.149  29.289  1.00  0.00    -0.388 OA
ATOM    529 'HO2   A A  21      14.397  64.338  29.685  1.00  0.00     0.210 HD
ATOM    530  C3'   A A  21      12.975  63.462  27.918  1.00  0.00     0.198 C 
ATOM    531  O3'   A A  21      14.303  63.138  27.515  1.00  0.00    -0.279 OA
ATOM    532  P     A A  22      15.210  62.188  28.442  1.00  0.00     0.408 P 
ATOM    533  OP1   A A  22      14.482  60.902  28.596  1.00  0.00    -0.624 OA
ATOM    534  OP2   A A  22      16.592  62.189  27.896  1.00  0.00    -0.624 OA
ATOM    535  O5'   A A  22      15.226  62.933  29.851  1.00  0.00    -0.287 OA
ATOM    536  C5'   A A  22      15.025  62.213  31.066  1.00  0.00     0.216 C 
ATOM    537  C4'   A A  22      15.513  63.028  32.241  1.00  0.00     0.180 C 
ATOM    538  O4'   A A  22      16.910  63.366  32.015  1.00  0.00    -0.353 OA
ATOM    539  C1'   A A  22      17.075  64.768  32.068  1.00  0.00     0.262 C 
ATOM    540  N9    A A  22      18.102  65.150  31.100  1.00  0.00    -0.294 N 
ATOM    541  C4    A A  22      19.006  66.176  31.233  1.00  0.00     0.167 A 
ATOM    542  N3    A A  22      19.129  67.026  32.267  1.00  0.00    -0.222 NA
ATOM    543  C2    A A  22      20.116  67.891  32.048  1.00  0.00     0.237 A 
ATOM    544  N1    A A  22      20.933  67.996  30.992  1.00  0.00    -0.222 NA
ATOM    545  C6    A A  22      20.782  67.127  29.970  1.00  0.00     0.155 A 
ATOM    546  N6    A A  22      21.594  67.232  28.919  1.00  0.00    -0.382 N 
ATOM    547  H61   A A  22      21.499  66.593  28.144  1.00  0.00     0.157 HD
ATOM    548  H62   A A  22      22.301  67.954  28.903  1.00  0.00     0.157 HD
ATOM    549  C5    A A  22      19.769  66.157  30.080  1.00  0.00     0.149 A 
ATOM    550  N7    A A  22      19.355  65.138  29.233  1.00  0.00    -0.236 NA
ATOM    551  C8    A A  22      18.367  64.572  29.883  1.00  0.00     0.214 A 
ATOM    552  C2'   A A  22      15.703  65.374  31.791  1.00  0.00     0.199 C 
ATOM    553  O2'   A A  22      15.624  66.633  32.434  1.00  0.00    -0.388 OA
ATOM    554 'HO2   A A  22      15.544  66.460  33.373  1.00  0.00     0.210 HD
ATOM    555  C3'   A A  22      14.787  64.354  32.460  1.00  0.00     0.198 C 
ATOM    556  O3'   A A  22      14.609  64.620  33.850  1.00  0.00    -0.279 OA
ATOM    557  P     A A  23      13.141  64.947  34.425  1.00  0.00     0.408 P 
ATOM    558  OP1   A A  23      13.153  66.366  34.864  1.00  0.00    -0.624 OA
ATOM    559  OP2   A A  23      12.119  64.490  33.448  1.00  0.00    -0.624 OA
ATOM    560  O5'   A A  23      13.028  64.034  35.727  1.00  0.00    -0.287 OA
ATOM    561  C5'   A A  23      12.839  62.622  35.624  1.00  0.00     0.216 C 
ATOM    562  C4'   A A  23      13.891  61.898  36.432  1.00  0.00     0.180 C 
ATOM    563  O4'   A A  23      13.304  61.513  37.708  1.00  0.00    -0.353 OA
ATOM    564  C1'   A A  23      13.381  60.112  37.864  1.00  0.00     0.262 C 
ATOM    565  N9    A A  23      12.180  59.657  38.563  1.00  0.00    -0.294 N 
ATOM    566  C4    A A  23      12.127  58.701  39.548  1.00  0.00     0.167 A 
ATOM    567  N3    A A  23      13.153  58.001  40.061  1.00  0.00    -0.222 NA
ATOM    568  C2    A A  23      12.725  57.162  41.001  1.00  0.00     0.237 A 
ATOM    569  N1    A A  23      11.481  56.958  41.453  1.00  0.00    -0.222 NA
ATOM    570  C6    A A  23      10.473  57.677  40.917  1.00  0.00     0.155 A 
ATOM    571  N6    A A  23       9.236  57.474  41.368  1.00  0.00    -0.382 N 
ATOM    572  H61   A A  23       8.465  57.999  40.983  1.00  0.00     0.157 HD
ATOM    573  H62   A A  23       9.075  56.794  42.097  1.00  0.00     0.157 HD
ATOM    574  C5    A A  23      10.795  58.603  39.907  1.00  0.00     0.149 A 
ATOM    575  N7    A A  23      10.020  59.482  39.163  1.00  0.00    -0.236 NA
ATOM    576  C8    A A  23      10.886  60.081  38.382  1.00  0.00     0.214 A 
ATOM    577  C2'   A A  23      13.551  59.532  36.464  1.00  0.00     0.199 C 
ATOM    578  O2'   A A  23      14.248  58.305  36.560  1.00  0.00    -0.388 OA
ATOM    579 'HO2   A A  23      15.181  58.524  36.592  1.00  0.00     0.210 HD
ATOM    580  C3'   A A  23      14.412  60.604  35.809  1.00  0.00     0.198 C 
ATOM    581  O3'   A A  23      15.798  60.413  36.082  1.00  0.00    -0.279 OA
ATOM    582  P     G A  24      16.897  60.828  34.982  1.00  0.00     0.408 P 
ATOM    583  OP1   G A  24      18.220  60.404  35.509  1.00  0.00    -0.624 OA
ATOM    584  OP2   G A  24      16.443  60.331  33.658  1.00  0.00    -0.624 OA
ATOM    585  O5'   G A  24      16.849  62.420  34.972  1.00  0.00    -0.287 OA
ATOM    586  C5'   G A  24      17.382  63.180  36.055  1.00  0.00     0.216 C 
ATOM    587  C4'   G A  24      18.796  63.611  35.742  1.00  0.00     0.180 C 
ATOM    588  O4'   G A  24      18.762  64.530  34.614  1.00  0.00    -0.353 OA
ATOM    589  C1'   G A  24      19.518  65.687  34.915  1.00  0.00     0.262 C 
ATOM    590  N9    G A  24      18.592  66.789  35.158  1.00  0.00    -0.293 N 
ATOM    591  C4    G A  24      18.918  68.110  35.351  1.00  0.00     0.187 A 
ATOM    592  N3    G A  24      20.164  68.629  35.351  1.00  0.00    -0.044 NA
ATOM    593  C2    G A  24      20.155  69.932  35.563  1.00  0.00     0.703 A 
ATOM    594  N2    G A  24      21.308  70.607  35.597  1.00  0.00    -0.233 N 
ATOM    595  H21   G A  24      22.174  70.109  35.457  1.00  0.00     0.174 HD
ATOM    596  H22   G A  24      21.313  71.603  35.760  1.00  0.00     0.174 HD
ATOM    597  N1    G A  24      19.017  70.671  35.761  1.00  0.00    -0.153 N 
ATOM    598  H1    G A  24      19.116  71.665  35.914  1.00  0.00     0.187 HD
ATOM    599  C6    G A  24      17.725  70.159  35.768  1.00  0.00     0.292 A 
ATOM    600  O6    G A  24      16.766  70.913  35.961  1.00  0.00    -0.265 OA
ATOM    601  C5    G A  24      17.717  68.760  35.540  1.00  0.00     0.173 A 
ATOM    602  N7    G A  24      16.656  67.867  35.467  1.00  0.00    -0.234 NA
ATOM    603  C8    G A  24      17.222  66.715  35.238  1.00  0.00     0.214 A 
ATOM    604  C2'   G A  24      20.402  65.338  36.109  1.00  0.00     0.199 C 
ATOM    605  O2'   G A  24      21.570  64.691  35.638  1.00  0.00    -0.388 OA
ATOM    606 'HO2   G A  24      21.557  63.805  36.003  1.00  0.00     0.210 HD
ATOM    607  C3'   G A  24      19.502  64.365  36.864  1.00  0.00     0.198 C 
ATOM    608  O3'   G A  24      20.242  63.478  37.697  1.00  0.00    -0.279 OA
ATOM    609  P     C A  25      20.186  63.647  39.297  1.00  0.00     0.408 P 
ATOM    610  OP1   C A  25      21.087  62.624  39.884  1.00  0.00    -0.624 OA
ATOM    611  OP2   C A  25      18.761  63.696  39.713  1.00  0.00    -0.624 OA
ATOM    612  O5'   C A  25      20.828  65.082  39.556  1.00  0.00    -0.287 OA
ATOM    613  C5'   C A  25      22.164  65.372  39.146  1.00  0.00     0.216 C 
ATOM    614  C4'   C A  25      22.398  66.864  39.153  1.00  0.00     0.180 C 
ATOM    615  O4'   C A  25      21.568  67.482  38.132  1.00  0.00    -0.353 OA
ATOM    616  C1'   C A  25      21.100  68.739  38.594  1.00  0.00     0.264 C 
ATOM    617  N1    C A  25      19.630  68.695  38.667  1.00  0.00    -0.278 N 
ATOM    618  C6    C A  25      18.954  67.514  38.534  1.00  0.00     0.102 A 
ATOM    619  C2    C A  25      18.931  69.886  38.879  1.00  0.00     0.352 A 
ATOM    620  O2    C A  25      19.567  70.943  38.997  1.00  0.00    -0.244 OA
ATOM    621  N3    C A  25      17.583  69.859  38.949  1.00  0.00    -0.177 NA
ATOM    622  C4    C A  25      16.931  68.703  38.813  1.00  0.00     0.128 A 
ATOM    623  N4    C A  25      15.601  68.728  38.885  1.00  0.00    -0.384 N 
ATOM    624  H41   C A  25      15.071  67.875  38.786  1.00  0.00     0.157 HD
ATOM    625  H42   C A  25      15.125  69.607  39.034  1.00  0.00     0.157 HD
ATOM    626  C5    C A  25      17.617  67.472  38.596  1.00  0.00     0.067 A 
ATOM    627  C2'   C A  25      21.771  69.007  39.941  1.00  0.00     0.199 C 
ATOM    628  O2'   C A  25      22.995  69.679  39.712  1.00  0.00    -0.388 OA
ATOM    629 'HO2   C A  25      23.666  69.207  40.207  1.00  0.00     0.210 HD
ATOM    630  C3'   C A  25      22.005  67.586  40.434  1.00  0.00     0.198 C 
ATOM    631  O3'   C A  25      23.030  67.509  41.422  1.00  0.00    -0.279 OA
ATOM    632  P     C A  26      22.638  67.507  42.982  1.00  0.00     0.408 P 
ATOM    633  OP1   C A  26      23.858  67.141  43.745  1.00  0.00    -0.624 OA
ATOM    634  OP2   C A  26      21.396  66.710  43.158  1.00  0.00    -0.624 OA
ATOM    635  O5'   C A  26      22.294  69.031  43.296  1.00  0.00    -0.287 OA
ATOM    636  C5'   C A  26      23.269  70.056  43.107  1.00  0.00     0.216 C 
ATOM    637  C4'   C A  26      22.645  71.415  43.324  1.00  0.00     0.180 C 
ATOM    638  O4'   C A  26      21.672  71.669  42.273  1.00  0.00    -0.353 OA
ATOM    639  C1'   C A  26      20.566  72.378  42.809  1.00  0.00     0.264 C 
ATOM    640  N1    C A  26      19.363  71.539  42.681  1.00  0.00    -0.278 N 
ATOM    641  C6    C A  26      19.464  70.192  42.471  1.00  0.00     0.102 A 
ATOM    642  C2    C A  26      18.108  72.144  42.778  1.00  0.00     0.352 A 
ATOM    643  O2    C A  26      18.042  73.366  42.971  1.00  0.00    -0.244 OA
ATOM    644  N3    C A  26      16.996  71.385  42.661  1.00  0.00    -0.177 NA
ATOM    645  C4    C A  26      17.105  70.073  42.452  1.00  0.00     0.128 A 
ATOM    646  N4    C A  26      15.981  69.367  42.340  1.00  0.00    -0.384 N 
ATOM    647  H41   C A  26      16.015  68.371  42.182  1.00  0.00     0.157 HD
ATOM    648  H42   C A  26      15.090  69.840  42.411  1.00  0.00     0.157 HD
ATOM    649  C5    C A  26      18.371  69.427  42.349  1.00  0.00     0.067 A 
ATOM    650  C2'   C A  26      20.911  72.725  44.257  1.00  0.00     0.199 C 
ATOM    651  O2'   C A  26      21.589  73.967  44.279  1.00  0.00    -0.388 OA
ATOM    652 'HO2   C A  26      22.282  73.892  44.936  1.00  0.00     0.210 HD
ATOM    653  C3'   C A  26      21.848  71.577  44.611  1.00  0.00     0.198 C 
ATOM    654  O3'   C A  26      22.683  71.877  45.725  1.00  0.00    -0.279 OA
ATOM    655  P     C A  27      22.190  71.512  47.212  1.00  0.00     0.408 P 
ATOM    656  OP1   C A  27      23.347  71.709  48.124  1.00  0.00    -0.624 OA
ATOM    657  OP2   C A  27      21.502  70.196  47.174  1.00  0.00    -0.624 OA
ATOM    658  O5'   C A  27      21.102  72.629  47.543  1.00  0.00    -0.287 OA
ATOM    659  C5'   C A  27      21.474  73.998  47.683  1.00  0.00     0.216 C 
ATOM    660  C4'   C A  27      20.243  74.868  47.786  1.00  0.00     0.180 C 
ATOM    661  O4'   C A  27      19.400  74.651  46.622  1.00  0.00    -0.353 OA
ATOM    662  C1'   C A  27      18.038  74.800  46.990  1.00  0.00     0.264 C 
ATOM    663  N1    C A  27      17.324  73.552  46.669  1.00  0.00    -0.278 N 
ATOM    664  C6    C A  27      18.007  72.390  46.442  1.00  0.00     0.102 A 
ATOM    665  C2    C A  27      15.930  73.575  46.600  1.00  0.00     0.352 A 
ATOM    666  O2    C A  27      15.334  74.638  46.816  1.00  0.00    -0.244 OA
ATOM    667  N3    C A  27      15.263  72.437  46.304  1.00  0.00    -0.177 NA
ATOM    668  C4    C A  27      15.938  71.309  46.077  1.00  0.00     0.128 A 
ATOM    669  N4    C A  27      15.237  70.215  45.784  1.00  0.00    -0.384 N 
ATOM    670  H41   C A  27      15.708  69.339  45.605  1.00  0.00     0.157 HD
ATOM    671  H42   C A  27      14.229  70.266  45.736  1.00  0.00     0.157 HD
ATOM    672  C5    C A  27      17.361  71.255  46.143  1.00  0.00     0.067 A 
ATOM    673  C2'   C A  27      17.998  75.158  48.476  1.00  0.00     0.199 C 
ATOM    674  O2'   C A  27      17.987  76.566  48.606  1.00  0.00    -0.388 OA
ATOM    675 'HO2   C A  27      18.643  76.787  49.269  1.00  0.00     0.210 HD
ATOM    676  C3'   C A  27      19.319  74.573  48.957  1.00  0.00     0.198 C 
ATOM    677  O3'   C A  27      19.777  75.178  50.164  1.00  0.00    -0.279 OA
ATOM    678  P     C A  28      19.305  74.587  51.584  1.00  0.00     0.408 P 
ATOM    679  OP1   C A  28      20.179  75.185  52.625  1.00  0.00    -0.624 OA
ATOM    680  OP2   C A  28      19.203  73.109  51.471  1.00  0.00    -0.624 OA
ATOM    681  O5'   C A  28      17.831  75.165  51.774  1.00  0.00    -0.287 OA
ATOM    682  C5'   C A  28      17.608  76.557  51.997  1.00  0.00     0.216 C 
ATOM    683  C4'   C A  28      16.173  76.797  52.405  1.00  0.00     0.180 C 
ATOM    684  O4'   C A  28      15.320  76.666  51.232  1.00  0.00    -0.353 OA
ATOM    685  C1'   C A  28      14.156  75.927  51.566  1.00  0.00     0.264 C 
ATOM    686  N1    C A  28      14.228  74.619  50.894  1.00  0.00    -0.278 N 
ATOM    687  C6    C A  28      15.435  74.082  50.542  1.00  0.00     0.102 A 
ATOM    688  C2    C A  28      13.045  73.929  50.622  1.00  0.00     0.352 A 
ATOM    689  O2    C A  28      11.963  74.434  50.956  1.00  0.00    -0.244 OA
ATOM    690  N3    C A  28      13.107  72.728  50.004  1.00  0.00    -0.177 NA
ATOM    691  C4    C A  28      14.290  72.216  49.660  1.00  0.00     0.128 A 
ATOM    692  N4    C A  28      14.303  71.031  49.049  1.00  0.00    -0.384 N 
ATOM    693  H41   C A  28      15.175  70.609  48.772  1.00  0.00     0.157 HD
ATOM    694  H42   C A  28      13.431  70.557  48.860  1.00  0.00     0.157 HD
ATOM    695  C5    C A  28      15.512  72.894  49.928  1.00  0.00     0.067 A 
ATOM    696  C2'   C A  28      14.115  75.834  53.088  1.00  0.00     0.199 C 
ATOM    697  O2'   C A  28      13.502  77.004  53.602  1.00  0.00    -0.388 OA
ATOM    698 'HO2   C A  28      13.978  77.237  54.399  1.00  0.00     0.210 HD
ATOM    699  C3'   C A  28      15.603  75.803  53.409  1.00  0.00     0.198 C 
ATOM    700  O3'   C A  28      15.883  76.189  54.752  1.00  0.00    -0.279 OA
ATOM    701  P     C A  29      16.195  75.064  55.858  1.00  0.00     0.408 P 
ATOM    702  OP1   C A  29      16.730  75.755  57.058  1.00  0.00    -0.624 OA
ATOM    703  OP2   C A  29      16.987  73.981  55.221  1.00  0.00    -0.624 OA
ATOM    704  O5'   C A  29      14.759  74.475  56.222  1.00  0.00    -0.287 OA
ATOM    705  C5'   C A  29      13.751  75.303  56.799  1.00  0.00     0.216 C 
ATOM    706  C4'   C A  29      12.405  74.620  56.719  1.00  0.00     0.180 C 
ATOM    707  O4'   C A  29      12.045  74.436  55.323  1.00  0.00    -0.353 OA
ATOM    708  C1'   C A  29      11.354  73.207  55.167  1.00  0.00     0.264 C 
ATOM    709  N1    C A  29      12.138  72.338  54.274  1.00  0.00    -0.278 N 
ATOM    710  C6    C A  29      13.479  72.537  54.099  1.00  0.00     0.102 A 
ATOM    711  C2    C A  29      11.486  71.297  53.608  1.00  0.00     0.352 A 
ATOM    712  O2    C A  29      10.269  71.140  53.781  1.00  0.00    -0.244 OA
ATOM    713  N3    C A  29      12.197  70.488  52.792  1.00  0.00    -0.177 NA
ATOM    714  C4    C A  29      13.505  70.691  52.626  1.00  0.00     0.128 A 
ATOM    715  N4    C A  29      14.161  69.867  51.810  1.00  0.00    -0.384 N 
ATOM    716  H41   C A  29      15.151  69.979  51.653  1.00  0.00     0.157 HD
ATOM    717  H42   C A  29      13.655  69.123  51.347  1.00  0.00     0.157 HD
ATOM    718  C5    C A  29      14.195  71.746  53.289  1.00  0.00     0.067 A 
ATOM    719  C2'   C A  29      11.153  72.617  56.564  1.00  0.00     0.199 C 
ATOM    720  O2'   C A  29       9.928  73.095  57.087  1.00  0.00    -0.388 OA
ATOM    721 'HO2   C A  29      10.116  73.438  57.961  1.00  0.00     0.210 HD
ATOM    722  C3'   C A  29      12.341  73.217  57.304  1.00  0.00     0.198 C 
ATOM    723  O3'   C A  29      12.151  73.236  58.716  1.00  0.00    -0.279 OA
ATOM    724  P     C A  30      12.642  71.988  59.604  1.00  0.00     0.408 P 
ATOM    725  OP1   C A  30      12.349  72.310  61.024  1.00  0.00    -0.624 OA
ATOM    726  OP2   C A  30      14.028  71.639  59.201  1.00  0.00    -0.624 OA
ATOM    727  O5'   C A  30      11.684  70.795  59.156  1.00  0.00    -0.287 OA
ATOM    728  C5'   C A  30      10.280  70.849  59.400  1.00  0.00     0.216 C 
ATOM    729  C4'   C A  30       9.619  69.573  58.933  1.00  0.00     0.180 C 
ATOM    730  O4'   C A  30       9.618  69.542  57.481  1.00  0.00    -0.353 OA
ATOM    731  C1'   C A  30       9.777  68.206  57.033  1.00  0.00     0.264 C 
ATOM    732  N1    C A  30      10.995  68.133  56.209  1.00  0.00    -0.278 N 
ATOM    733  C6    C A  30      12.026  69.011  56.399  1.00  0.00     0.102 A 
ATOM    734  C2    C A  30      11.081  67.148  55.223  1.00  0.00     0.352 A 
ATOM    735  O2    C A  30      10.132  66.365  55.070  1.00  0.00    -0.244 OA
ATOM    736  N3    C A  30      12.194  67.071  54.461  1.00  0.00    -0.177 NA
ATOM    737  C4    C A  30      13.193  67.933  54.651  1.00  0.00     0.128 A 
ATOM    738  N4    C A  30      14.269  67.820  53.874  1.00  0.00    -0.384 N 
ATOM    739  H41   C A  30      15.048  68.451  53.983  1.00  0.00     0.157 HD
ATOM    740  H42   C A  30      14.298  67.096  53.168  1.00  0.00     0.157 HD
ATOM    741  C5    C A  30      13.132  68.951  55.647  1.00  0.00     0.067 A 
ATOM    742  C2'   C A  30       9.822  67.307  58.269  1.00  0.00     0.199 C 
ATOM    743  O2'   C A  30       8.508  66.867  58.556  1.00  0.00    -0.388 OA
ATOM    744 'HO2   C A  30       8.241  67.307  59.363  1.00  0.00     0.210 HD
ATOM    745  C3'   C A  30      10.320  68.282  59.329  1.00  0.00     0.198 C 
ATOM    746  O3'   C A  30       9.973  67.875  60.649  1.00  0.00    -0.279 OA
ATOM    747  P     C A  31      10.950  66.893  61.467  1.00  0.00     0.408 P 
ATOM    748  OP1   C A  31      10.362  66.702  62.817  1.00  0.00    -0.624 OA
ATOM    749  OP2   C A  31      12.342  67.395  61.338  1.00  0.00    -0.624 OA
ATOM    750  O5'   C A  31      10.851  65.509  60.683  1.00  0.00    -0.287 OA
ATOM    751  C5'   C A  31       9.602  64.835  60.536  1.00  0.00     0.216 C 
ATOM    752  C4'   C A  31       9.783  63.570  59.728  1.00  0.00     0.180 C 
ATOM    753  O4'   C A  31      10.012  63.924  58.340  1.00  0.00    -0.353 OA
ATOM    754  C1'   C A  31      10.878  62.975  57.745  1.00  0.00     0.264 C 
ATOM    755  N1    C A  31      12.036  63.691  57.185  1.00  0.00    -0.278 N 
ATOM    756  C6    C A  31      12.524  64.816  57.791  1.00  0.00     0.102 A 
ATOM    757  C2    C A  31      12.634  63.201  56.022  1.00  0.00     0.352 A 
ATOM    758  O2    C A  31      12.170  62.180  55.490  1.00  0.00    -0.244 OA
ATOM    759  N3    C A  31      13.701  63.847  55.504  1.00  0.00    -0.177 NA
ATOM    760  C4    C A  31      14.169  64.945  56.099  1.00  0.00     0.128 A 
ATOM    761  N4    C A  31      15.221  65.548  55.551  1.00  0.00    -0.384 N 
ATOM    762  H41   C A  31      15.607  66.381  55.970  1.00  0.00     0.157 HD
ATOM    763  H42   C A  31      15.631  65.167  54.710  1.00  0.00     0.157 HD
ATOM    764  C5    C A  31      13.578  65.469  57.286  1.00  0.00     0.067 A 
ATOM    765  C2'   C A  31      11.253  61.944  58.813  1.00  0.00     0.198 C 
ATOM    766  O2'   C A  31      10.379  60.835  58.698  1.00  0.00    -0.388 OA
ATOM    767 'HO2   C A  31      10.158  60.561  59.588  1.00  0.00     0.210 HD
ATOM    768  C3'   C A  31      10.990  62.722  60.099  1.00  0.00     0.182 C 
ATOM    769  O3'   C A  31      10.726  61.863  61.213  1.00  0.00    -0.390 OA
ATOM    770 'HO3   C A  31      10.401  62.417  61.928  1.00  0.00     0.210 HD
ENDROOT
TORSDOF 244
ENDMDL
MODEL 3
REMARK VINA RESULT:     -15.1      2.967      4.391
REMARK  0 active torsions:
REMARK  status: ('A' for Active; 'I' for Inactive)
REMARK       I    between atoms: O5'_2  and  C5'_3 
REMARK       I    between atoms: C5'_3  and  C4'_4 
REMARK       I    between atoms: C1'_6  and  N9_7 
REMARK       I    between atoms: C2_10  and  N2_11 
REMARK       I    between atoms: C2'_21  and  O2'_22 
REMARK       I    between atoms: C3'_24  and  O3'_25 
REMARK       I    between atoms: O3'_25  and  P_26 
REMARK       I    between atoms: P_26  and  O5'_29 
REMARK       I    between atoms: O5'_29  and  C5'_30 
REMARK       I    between atoms: C5'_30  and  C4'_31 
REMARK       I    between atoms: C1'_33  and  N9_34 
REMARK       I    between atoms: C2_37  and  N2_38 
REMARK       I    between atoms: C2'_48  and  O2'_49 
REMARK       I    between atoms: C3'_51  and  O3'_52 
REMARK       I    between atoms: O3'_52  and  P_53 
REMARK       I    between atoms: P_53  and  O5'_56 
REMARK       I    between atoms: O5'_56  and  C5'_57 
REMARK       I    between atoms: C5'_57  and  C4'_58 
REMARK       I    between atoms: C1'_60  and  N9_61 
REMARK       I    between atoms: C2_64  and  N2_65 
REMARK       I    between atoms: C2'_75  and  O2'_76 
REMARK       I    between atoms: C3'_78  and  O3'_79 
REMARK       I    between atoms: O3'_79  and  P_80 
REMARK       I    between atoms: P_80  and  O5'_83 
REMARK       I    between atoms: O5'_83  and  C5'_84 
REMARK       I    between atoms: C5'_84  and  C4'_85 
REMARK       I    between atoms: C1'_87  and  N9_88 
REMARK       I    between atoms: C2_91  and  N2_92 
REMARK       I    between atoms: C2'_102  and  O2'_103 
REMARK       I    between atoms: C3'_105  and  O3'_106 
REMARK       I    between atoms: O3'_106  and  P_107 
REMARK       I    between atoms: P_107  and  O5'_110 
REMARK       I    between atoms: O5'_110  and  C5'_111 
REMARK       I    between atoms: C5'_111  and  C4'_112 
REMARK       I    between atoms: C1'_114  and  N9_115 
REMARK       I    between atoms: C2_118  and  N2_119 
REMARK       I    between atoms: C2'_129  and  O2'_130 
REMARK       I    between atoms: C3'_132  and  O3'_133 
REMARK       I    between atoms: O3'_133  and  P_134 
REMARK       I    between atoms: P_134  and  O5'_137 
REMARK       I    between atoms: O5'_137  and  C5'_138 
REMARK       I    between atoms: C5'_138  and  C4'_139 
REMARK       I    between atoms: C1'_141  and  N9_142 
REMARK       I    between atoms: C2_145  and  N2_146 
REMARK       I    between atoms: C2'_156  and  O2'_157 
REMARK       I    between atoms: C3'_159  and  O3'_160 
REMARK       I    between atoms: O3'_160  and  P_161 
REMARK       I    between atoms: P_161  and  O5'_164 
REMARK       I    between atoms: O5'_164  and  C5'_165 
REMARK       I    between atoms: C5'_165  and  C4'_166 
REMARK       I    between atoms: C1'_168  and  N9_169 
REMARK       I    between atoms: C2_172  and  N2_173 
REMARK       I    between atoms: C2'_183  and  O2'_184 
REMARK       I    between atoms: C3'_186  and  O3'_187 
REMARK       I    between atoms: O3'_187  and  P_188 
REMARK       I    between atoms: P_188  and  O5'_191 
REMARK       I    between atoms: O5'_191  and  C5'_192 
REMARK       I    between atoms: C5'_192  and  C4'_193 
REMARK       I    between atoms: C1'_195  and  N1_196 
REMARK       I    between atoms: C2'_205  and  O2'_206 
REMARK       I    between atoms: C3'_208  and  O3'_209 
REMARK       I    between atoms: O3'_209  and  P_210 
REMARK       I    between atoms: P_210  and  O5'_213 
REMARK       I    between atoms: O5'_213  and  C5'_214 
REMARK       I    between atoms: C5'_214  and  C4'_215 
REMARK       I    between atoms: C1'_217  and  N9_218 
REMARK       I    between atoms: C6_223  and  N6_224 
REMARK       I    between atoms: C2'_230  and  O2'_231 
REMARK       I    between atoms: C3'_233  and  O3'_234 
REMARK       I    between atoms: O3'_234  and  P_235 
REMARK       I    between atoms: P_235  and  O5'_238 
REMARK       I    between atoms: O5'_238  and  C5'_239 
REMARK       I    between atoms: C5'_239  and  C4'_240 
REMARK       I    between atoms: C1'_242  and  N9_243 
REMARK       I    between atoms: C2_246  and  N2_247 
REMARK       I    between atoms: C2'_257  and  O2'_258 
REMARK       I    between atoms: C3'_260  and  O3'_261 
REMARK       I    between atoms: O3'_261  and  P_262 
REMARK       I    between atoms: P_262  and  O5'_265 
REMARK       I    between atoms: O5'_265  and  C5'_266 
REMARK       I    between atoms: C5'_266  and  C4'_267 
REMARK       I    between atoms: C1'_269  and  N1_270 
REMARK       I    between atoms: C4_275  and  N4_276 
REMARK       I    between atoms: C2'_280  and  O2'_281 
REMARK       I    between atoms: C3'_283  and  O3'_284 
REMARK       I    between atoms: O3'_284  and  P_285 
REMARK       I    between atoms: P_285  and  O5'_288 
REMARK       I    between atoms: O5'_288  and  C5'_289 
REMARK       I    between atoms: C5'_289  and  C4'_290 
REMARK       I    between atoms: C1'_292  and  N1_293 
REMARK       I    between atoms: C4_298  and  N4_299 
REMARK       I    between atoms: C2'_303  and  O2'_304 
REMARK       I    between atoms: C3'_306  and  O3'_307 
REMARK       I    between atoms: O3'_307  and  P_308 
REMARK       I    between atoms: P_308  and  O5'_311 
REMARK       I    between atoms: O5'_311  and  C5'_312 
REMARK       I    between atoms: C5'_312  and  C4'_313 
REMARK       I    between atoms: C1'_315  and  N9_316 
REMARK       I    between atoms: C6_321  and  N6_322 
REMARK       I    between atoms: C2'_328  and  O2'_329 
REMARK       I    between atoms: C3'_331  and  O3'_332 
REMARK       I    between atoms: O3'_332  and  P_333 
REMARK       I    between atoms: P_333  and  O5'_336 
REMARK       I    between atoms: O5'_336  and  C5'_337 
REMARK       I    between atoms: C5'_337  and  C4'_338 
REMARK       I    between atoms: C1'_340  and  N9_341 
REMARK       I    between atoms: C6_346  and  N6_347 
REMARK       I    between atoms: C2'_353  and  O2'_354 
REMARK       I    between atoms: C3'_356  and  O3'_357 
REMARK       I    between atoms: O3'_357  and  P_358 
REMARK       I    between atoms: P_358  and  O5'_361 
REMARK       I    between atoms: O5'_361  and  C5'_362 
REMARK       I    between atoms: C5'_362  and  C4'_363 
REMARK       I    between atoms: C1'_365  and  N9_366 
REMARK       I    between atoms: C2_369  and  N2_370 
REMARK       I    between atoms: C2'_380  and  O2'_381 
REMARK       I    between atoms: C3'_383  and  O3'_384 
REMARK       I    between atoms: O3'_384  and  P_385 
REMARK       I    between atoms: P_385  and  O5'_388 
REMARK       I    between atoms: O5'_388  and  C5'_389 
REMARK       I    between atoms: C5'_389  and  C4'_390 
REMARK       I    between atoms: C1'_392  and  N1_393 
REMARK       I    between atoms: C2'_402  and  O2'_403 
REMARK       I    between atoms: C3'_405  and  O3'_406 
REMARK       I    between atoms: O3'_406  and  P_407 
REMARK       I    between atoms: P_407  and  O5'_410 
REMARK       I    between atoms: O5'_410  and  C5'_411 
REMARK       I    between atoms: C5'_411  and  C4'_412 
REMARK       I    between atoms: C1'_414  and  N9_415 
REMARK       I    between atoms: C2_418  and  N2_419 
REMARK       I    between atoms: C2'_429  and  O2'_430 
REMARK       I    between atoms: C3'_432  and  O3'_433 
REMARK       I    between atoms: O3'_433  and  P_434 
REMARK       I    between atoms: P_434  and  O5'_437 
REMARK       I    between atoms: O5'_437  and  C5'_438 
REMARK       I    between atoms: C5'_438  and  C4'_439 
REMARK       I    between atoms: C1'_441  and  N9_442 
REMARK       I    between atoms: C2_445  and  N2_446 
REMARK       I    between atoms: C2'_456  and  O2'_457 
REMARK       I    between atoms: C3'_459  and  O3'_460 
REMARK       I    between atoms: O3'_460  and  P_461 
REMARK       I    between atoms: P_461  and  O5'_464 
REMARK       I    between atoms: O5'_464  and  C5'_465 
REMARK       I    between atoms: C5'_465  and  C4'_466 
REMARK       I    between atoms: C1'_468  and  N1_469 
REMARK       I    between atoms: C4_474  and  N4_475 
REMARK       I    between atoms: C2'_479  and  O2'_480 
REMARK       I    between atoms: C3'_482  and  O3'_483 
REMARK       I    between atoms: O3'_483  and  P_484 
REMARK       I    between atoms: P_484  and  O5'_487 
REMARK       I    between atoms: O5'_487  and  C5'_488 
REMARK       I    between atoms: C5'_488  and  C4'_489 
REMARK       I    between atoms: C1'_491  and  N1_492 
REMARK       I    between atoms: C4_497  and  N4_498 
REMARK       I    between atoms: C2'_502  and  O2'_503 
REMARK       I    between atoms: C3'_505  and  O3'_506 
REMARK       I    between atoms: O3'_506  and  P_507 
REMARK       I    between atoms: P_507  and  O5'_510 
REMARK       I    between atoms: O5'_510  and  C5'_511 
REMARK       I    between atoms: C5'_511  and  C4'_512 
REMARK       I    between atoms: C1'_514  and  N9_515 
REMARK       I    between atoms: C6_520  and  N6_521 
REMARK       I    between atoms: C2'_527  and  O2'_528 
REMARK       I    between atoms: C3'_530  and  O3'_531 
REMARK       I    between atoms: O3'_531  and  P_532 
REMARK       I    between atoms: P_532  and  O5'_535 
REMARK       I    between atoms: O5'_535  and  C5'_536 
REMARK       I    between atoms: C5'_536  and  C4'_537 
REMARK       I    between atoms: C1'_539  and  N9_540 
REMARK       I    between atoms: C6_545  and  N6_546 
REMARK       I    between atoms: C2'_552  and  O2'_553 
REMARK       I    between atoms: C3'_555  and  O3'_556 
REMARK       I    between atoms: O3'_556  and  P_557 
REMARK       I    between atoms: P_557  and  O5'_560 
REMARK       I    between atoms: O5'_560  and  C5'_561 
REMARK       I    between atoms: C5'_561  and  C4'_562 
REMARK       I    between atoms: C1'_564  and  N9_565 
REMARK       I    between atoms: C6_570  and  N6_571 
REMARK       I    between atoms: C2'_577  and  O2'_578 
REMARK       I    between atoms: C3'_580  and  O3'_581 
REMARK       I    between atoms: O3'_581  and  P_582 
REMARK       I    between atoms: P_582  and  O5'_585 
REMARK       I    between atoms: O5'_585  and  C5'_586 
REMARK       I    between atoms: C5'_586  and  C4'_587 
REMARK       I    between atoms: C1'_589  and  N9_590 
REMARK       I    between atoms: C2_593  and  N2_594 
REMARK       I    between atoms: C2'_604  and  O2'_605 
REMARK       I    between atoms: C3'_607  and  O3'_608 
REMARK       I    between atoms: O3'_608  and  P_609 
REMARK       I    between atoms: P_609  and  O5'_612 
REMARK       I    between atoms: O5'_612  and  C5'_613 
REMARK       I    between atoms: C5'_613  and  C4'_614 
REMARK       I    between atoms: C1'_616  and  N1_617 
REMARK       I    between atoms: C4_622  and  N4_623 
REMARK       I    between atoms: C2'_627  and  O2'_628 
REMARK       I    between atoms: C3'_630  and  O3'_631 
REMARK       I    between atoms: O3'_631  and  P_632 
REMARK       I    between atoms: P_632  and  O5'_635 
REMARK       I    between atoms: O5'_635  and  C5'_636 
REMARK       I    between atoms: C5'_636  and  C4'_637 
REMARK       I    between atoms: C1'_639  and  N1_640 
REMARK       I    between atoms: C4_645  and  N4_646 
REMARK       I    between atoms: C2'_650  and  O2'_651 
REMARK       I    between atoms: C3'_653  and  O3'_654 
REMARK       I    between atoms: O3'_654  and  P_655 
REMARK       I    between atoms: P_655  and  O5'_658 
REMARK       I    between atoms: O5'_658  and  C5'_659 
REMARK       I    between atoms: C5'_659  and  C4'_660 
REMARK       I    between atoms: C1'_662  and  N1_663 
REMARK       I    between atoms: C4_668  and  N4_669 
REMARK       I    between atoms: C2'_673  and  O2'_674 
REMARK       I    between atoms: C3'_676  and  O3'_677 
REMARK       I    between atoms: O3'_677  and  P_678 
REMARK       I    between atoms: P_678  and  O5'_681 
REMARK       I    between atoms: O5'_681  and  C5'_682 
REMARK       I    between atoms: C5'_682  and  C4'_683 
REMARK       I    between atoms: C1'_685  and  N1_686 
REMARK       I    between atoms: C4_691  and  N4_692 
REMARK       I    between atoms: C2'_696  and  O2'_697 
REMARK       I    between atoms: C3'_699  and  O3'_700 
REMARK       I    between atoms: O3'_700  and  P_701 
REMARK       I    between atoms: P_701  and  O5'_704 
REMARK       I    between atoms: O5'_704  and  C5'_705 
REMARK       I    between atoms: C5'_705  and  C4'_706 
REMARK       I    between atoms: C1'_708  and  N1_709 
REMARK       I    between atoms: C4_714  and  N4_715 
REMARK       I    between atoms: C2'_719  and  O2'_720 
REMARK       I    between atoms: C3'_722  and  O3'_723 
REMARK       I    between atoms: O3'_723  and  P_724 
REMARK       I    between atoms: P_724  and  O5'_727 
REMARK       I    between atoms: O5'_727  and  C5'_728 
REMARK       I    between atoms: C5'_728  and  C4'_729 
REMARK       I    between atoms: C1'_731  and  N1_732 
REMARK       I    between atoms: C4_737  and  N4_738 
REMARK       I    between atoms: C2'_742  and  O2'_743 
REMARK       I    between atoms: C3'_745  and  O3'_746 
REMARK       I    between atoms: O3'_746  and  P_747 
REMARK       I    between atoms: P_747  and  O5'_750 
REMARK       I    between atoms: O5'_750  and  C5'_751 
REMARK       I    between atoms: C5'_751  and  C4'_752 
REMARK       I    between atoms: C1'_754  and  N1_755 
REMARK       I    between atoms: C4_760  and  N4_761 
REMARK       I    between atoms: C2'_765  and  O2'_766 
REMARK       I    between atoms: C3'_768  and  O3'_769 
ROOT
ATOM      1 'HO5   G A   1       2.046  62.546  23.323  1.00  0.00     0.209 HD
ATOM      2  O5'   G A   1       1.332  62.885  23.868  1.00  0.00    -0.398 OA
ATOM      3  C5'   G A   1       0.631  61.755  24.400  1.00  0.00     0.198 C 
ATOM      4  C4'   G A   1       1.398  60.477  24.150  1.00  0.00     0.180 C 
ATOM      5  O4'   G A   1       1.283  60.131  22.741  1.00  0.00    -0.353 OA
ATOM      6  C1'   G A   1       2.550  59.747  22.237  1.00  0.00     0.262 C 
ATOM      7  N9    G A   1       3.013  60.785  21.321  1.00  0.00    -0.293 N 
ATOM      8  C4    G A   1       4.161  60.759  20.566  1.00  0.00     0.187 A 
ATOM      9  N3    G A   1       5.070  59.761  20.539  1.00  0.00    -0.044 NA
ATOM     10  C2    G A   1       6.067  60.026  19.713  1.00  0.00     0.703 A 
ATOM     11  N2    G A   1       7.057  59.143  19.565  1.00  0.00    -0.233 N 
ATOM     12  H21   G A   1       7.034  58.280  20.088  1.00  0.00     0.174 HD
ATOM     13  H22   G A   1       7.825  59.340  18.939  1.00  0.00     0.174 HD
ATOM     14  N1    G A   1       6.167  61.176  18.973  1.00  0.00    -0.153 N 
ATOM     15  H1    G A   1       6.970  61.279  18.372  1.00  0.00     0.187 HD
ATOM     16  C6    G A   1       5.246  62.216  18.985  1.00  0.00     0.292 A 
ATOM     17  O6    G A   1       5.434  63.211  18.276  1.00  0.00    -0.265 OA
ATOM     18  C5    G A   1       4.168  61.948  19.868  1.00  0.00     0.173 A 
ATOM     19  N7    G A   1       3.047  62.707  20.177  1.00  0.00    -0.234 NA
ATOM     20  C8    G A   1       2.394  61.979  21.041  1.00  0.00     0.214 A 
ATOM     21  C2'   G A   1       3.464  59.532  23.442  1.00  0.00     0.199 C 
ATOM     22  O2'   G A   1       3.287  58.209  23.914  1.00  0.00    -0.388 OA
ATOM     23 'HO2   G A   1       4.132  57.923  24.261  1.00  0.00     0.210 HD
ATOM     24  C3'   G A   1       2.896  60.554  24.420  1.00  0.00     0.198 C 
ATOM     25  O3'   G A   1       3.199  60.241  25.778  1.00  0.00    -0.279 OA
ATOM     26  P     G A   2       4.367  61.039  26.543  1.00  0.00     0.408 P 
ATOM     27  OP1   G A   2       4.311  60.640  27.973  1.00  0.00    -0.624 OA
ATOM     28  OP2   G A   2       4.272  62.476  26.180  1.00  0.00    -0.624 OA
ATOM     29  O5'   G A   2       5.709  60.455  25.915  1.00  0.00    -0.287 OA
ATOM     30  C5'   G A   2       6.133  59.123  26.199  1.00  0.00     0.216 C 
ATOM     31  C4'   G A   2       7.274  58.733  25.289  1.00  0.00     0.180 C 
ATOM     32  O4'   G A   2       6.870  58.928  23.907  1.00  0.00    -0.353 OA
ATOM     33  C1'   G A   2       7.989  59.340  23.140  1.00  0.00     0.262 C 
ATOM     34  N9    G A   2       7.689  60.637  22.540  1.00  0.00    -0.293 N 
ATOM     35  C4    G A   2       8.450  61.296  21.606  1.00  0.00     0.187 A 
ATOM     36  N3    G A   2       9.618  60.864  21.088  1.00  0.00    -0.044 NA
ATOM     37  C2    G A   2      10.113  61.717  20.210  1.00  0.00     0.703 A 
ATOM     38  N2    G A   2      11.271  61.446  19.605  1.00  0.00    -0.233 N 
ATOM     39  H21   G A   2      11.754  60.588  19.827  1.00  0.00     0.174 HD
ATOM     40  H22   G A   2      11.665  62.094  18.937  1.00  0.00     0.174 HD
ATOM     41  N1    G A   2       9.511  62.899  19.864  1.00  0.00    -0.153 N 
ATOM     42  H1    G A   2       9.973  63.478  19.180  1.00  0.00     0.187 HD
ATOM     43  C6    G A   2       8.309  63.366  20.383  1.00  0.00     0.292 A 
ATOM     44  O6    G A   2       7.853  64.448  19.997  1.00  0.00    -0.265 OA
ATOM     45  C5    G A   2       7.765  62.461  21.332  1.00  0.00     0.173 A 
ATOM     46  N7    G A   2       6.599  62.535  22.082  1.00  0.00    -0.234 NA
ATOM     47  C8    G A   2       6.599  61.436  22.784  1.00  0.00     0.214 A 
ATOM     48  C2'   G A   2       9.203  59.364  24.069  1.00  0.00     0.199 C 
ATOM     49  O2'   G A   2       9.849  58.105  24.001  1.00  0.00    -0.388 OA
ATOM     50 'HO2   G A   2      10.150  57.904  24.886  1.00  0.00     0.210 HD
ATOM     51  C3'   G A   2       8.536  59.572  25.422  1.00  0.00     0.198 C 
ATOM     52  O3'   G A   2       9.355  59.136  26.504  1.00  0.00    -0.279 OA
ATOM     53  P     G A   3      10.337  60.182  27.235  1.00  0.00     0.408 P 
ATOM     54  OP1   G A   3      11.079  59.435  28.282  1.00  0.00    -0.624 OA
ATOM     55  OP2   G A   3       9.546  61.381  27.612  1.00  0.00    -0.624 OA
ATOM     56  O5'   G A   3      11.370  60.602  26.096  1.00  0.00    -0.287 OA
ATOM     57  C5'   G A   3      12.238  59.640  25.500  1.00  0.00     0.216 C 
ATOM     58  C4'   G A   3      13.423  60.328  24.859  1.00  0.00     0.180 C 
ATOM     59  O4'   G A   3      13.114  60.608  23.466  1.00  0.00    -0.353 OA
ATOM     60  C1'   G A   3      13.660  61.865  23.099  1.00  0.00     0.262 C 
ATOM     61  N9    G A   3      12.561  62.771  22.780  1.00  0.00    -0.293 N 
ATOM     62  C4    G A   3      12.632  63.900  21.999  1.00  0.00     0.187 A 
ATOM     63  N3    G A   3      13.737  64.369  21.383  1.00  0.00    -0.044 NA
ATOM     64  C2    G A   3      13.490  65.475  20.705  1.00  0.00     0.703 A 
ATOM     65  N2    G A   3      14.475  66.076  20.033  1.00  0.00    -0.233 N 
ATOM     66  H21   G A   3      15.401  65.676  20.050  1.00  0.00     0.174 HD
ATOM     67  H22   G A   3      14.293  66.922  19.511  1.00  0.00     0.174 HD
ATOM     68  N1    G A   3      12.259  66.076  20.635  1.00  0.00    -0.153 N 
ATOM     69  H1    G A   3      12.180  66.919  20.091  1.00  0.00     0.187 HD
ATOM     70  C6    G A   3      11.107  65.611  21.259  1.00  0.00     0.292 A 
ATOM     71  O6    G A   3      10.045  66.230  21.127  1.00  0.00    -0.265 OA
ATOM     72  C5    G A   3      11.356  64.421  21.993  1.00  0.00     0.173 A 
ATOM     73  N7    G A   3      10.499  63.637  22.753  1.00  0.00    -0.234 NA
ATOM     74  C8    G A   3      11.257  62.673  23.198  1.00  0.00     0.214 A 
ATOM     75  C2'   G A   3      14.518  62.342  24.270  1.00  0.00     0.199 C 
ATOM     76  O2'   G A   3      15.826  61.821  24.119  1.00  0.00    -0.388 OA
ATOM     77 'HO2   G A   3      16.090  61.494  24.979  1.00  0.00     0.210 HD
ATOM     78  C3'   G A   3      13.795  61.686  25.438  1.00  0.00     0.198 C 
ATOM     79  O3'   G A   3      14.619  61.563  26.595  1.00  0.00    -0.279 OA
ATOM     80  P     G A   4      14.667  62.758  27.670  1.00  0.00     0.408 P 
ATOM     81  OP1   G A   4      15.560  62.322  28.774  1.00  0.00    -0.624 OA
ATOM     82  OP2   G A   4      13.275  63.175  27.975  1.00  0.00    -0.624 OA
ATOM     83  O5'   G A   4      15.387  63.948  26.892  1.00  0.00    -0.287 OA
ATOM     84  C5'   G A   4      16.733  63.821  26.437  1.00  0.00     0.216 C 
ATOM     85  C4'   G A   4      17.164  65.076  25.718  1.00  0.00     0.180 C 
ATOM     86  O4'   G A   4      16.410  65.204  24.484  1.00  0.00    -0.353 OA
ATOM     87  C1'   G A   4      16.205  66.576  24.196  1.00  0.00     0.262 C 
ATOM     88  N9    G A   4      14.770  66.816  24.077  1.00  0.00    -0.293 N 
ATOM     89  C4    G A   4      14.172  67.878  23.448  1.00  0.00     0.187 A 
ATOM     90  N3    G A   4      14.810  68.896  22.832  1.00  0.00    -0.044 NA
ATOM     91  C2    G A   4      13.964  69.770  22.321  1.00  0.00     0.703 A 
ATOM     92  N2    G A   4      14.429  70.846  21.682  1.00  0.00    -0.233 N 
ATOM     93  H21   G A   4      15.428  70.974  21.597  1.00  0.00     0.174 HD
ATOM     94  H22   G A   4      13.792  71.524  21.289  1.00  0.00     0.174 HD
ATOM     95  N1    G A   4      12.600  69.657  22.401  1.00  0.00    -0.153 N 
ATOM     96  H1    G A   4      12.045  70.381  21.973  1.00  0.00     0.187 HD
ATOM     97  C6    G A   4      11.920  68.619  23.026  1.00  0.00     0.292 A 
ATOM     98  O6    G A   4      10.684  68.613  23.037  1.00  0.00    -0.265 OA
ATOM     99  C5    G A   4      12.815  67.672  23.587  1.00  0.00     0.173 A 
ATOM    100  N7    G A   4      12.565  66.502  24.292  1.00  0.00    -0.234 NA
ATOM    101  C8    G A   4      13.752  66.031  24.563  1.00  0.00     0.214 A 
ATOM    102  C2'   G A   4      16.869  67.392  25.306  1.00  0.00     0.199 C 
ATOM    103  O2'   G A   4      18.183  67.724  24.896  1.00  0.00    -0.388 OA
ATOM    104 'HO2   G A   4      18.762  67.498  25.624  1.00  0.00     0.210 HD
ATOM    105  C3'   G A   4      16.888  66.382  26.447  1.00  0.00     0.198 C 
ATOM    106  O3'   G A   4      17.895  66.669  27.414  1.00  0.00    -0.279 OA
ATOM    107  P     G A   5      17.558  67.643  28.650  1.00  0.00     0.408 P 
ATOM    108  OP1   G A   5      18.828  67.881  29.381  1.00  0.00    -0.624 OA
ATOM    109  OP2   G A   5      16.386  67.091  29.377  1.00  0.00    -0.624 OA
ATOM    110  O5'   G A   5      17.121  69.010  27.958  1.00  0.00    -0.287 OA
ATOM    111  C5'   G A   5      18.057  69.795  27.222  1.00  0.00     0.216 C 
ATOM    112  C4'   G A   5      17.421  71.092  26.783  1.00  0.00     0.180 C 
ATOM    113  O4'   G A   5      16.419  70.814  25.774  1.00  0.00    -0.353 OA
ATOM    114  C1'   G A   5      15.402  71.796  25.837  1.00  0.00     0.262 C 
ATOM    115  N9    G A   5      14.110  71.117  25.889  1.00  0.00    -0.293 N 
ATOM    116  C4    G A   5      12.900  71.640  25.504  1.00  0.00     0.187 A 
ATOM    117  N3    G A   5      12.691  72.875  25.003  1.00  0.00    -0.044 NA
ATOM    118  C2    G A   5      11.418  73.089  24.731  1.00  0.00     0.703 A 
ATOM    119  N2    G A   5      11.035  74.265  24.227  1.00  0.00    -0.233 N 
ATOM    120  H21   G A   5      11.725  74.981  24.058  1.00  0.00     0.174 HD
ATOM    121  H22   G A   5      10.060  74.439  24.025  1.00  0.00     0.174 HD
ATOM    122  N1    G A   5      10.423  72.168  24.932  1.00  0.00    -0.153 N 
ATOM    123  H1    G A   5       9.481  72.434  24.693  1.00  0.00     0.187 HD
ATOM    124  C6    G A   5      10.611  70.889  25.443  1.00  0.00     0.292 A 
ATOM    125  O6    G A   5       9.641  70.134  25.581  1.00  0.00    -0.265 OA
ATOM    126  C5    G A   5      11.977  70.642  25.743  1.00  0.00     0.173 A 
ATOM    127  N7    G A   5      12.597  69.513  26.263  1.00  0.00    -0.234 NA
ATOM    128  C8    G A   5      13.858  69.841  26.330  1.00  0.00     0.214 A 
ATOM    129  C2'   G A   5      15.670  72.690  27.052  1.00  0.00     0.199 C 
ATOM    130  O2'   G A   5      16.273  73.888  26.600  1.00  0.00    -0.388 OA
ATOM    131 'HO2   G A   5      15.752  74.610  26.954  1.00  0.00     0.210 HD
ATOM    132  C3'   G A   5      16.653  71.842  27.861  1.00  0.00     0.198 C 
ATOM    133  O3'   G A   5      17.530  72.631  28.661  1.00  0.00    -0.279 OA
ATOM    134  P     G A   6      16.967  73.381  29.968  1.00  0.00     0.408 P 
ATOM    135  OP1   G A   6      18.130  74.001  30.653  1.00  0.00    -0.624 OA
ATOM    136  OP2   G A   6      16.095  72.438  30.714  1.00  0.00    -0.624 OA
ATOM    137  O5'   G A   6      16.065  74.557  29.380  1.00  0.00    -0.287 OA
ATOM    138  C5'   G A   6      14.744  74.789  29.868  1.00  0.00     0.216 C 
ATOM    139  C4'   G A   6      14.013  75.740  28.950  1.00  0.00     0.180 C 
ATOM    140  O4'   G A   6      13.537  74.998  27.793  1.00  0.00    -0.353 OA
ATOM    141  C1'   G A   6      12.221  75.408  27.468  1.00  0.00     0.262 C 
ATOM    142  N9    G A   6      11.313  74.293  27.729  1.00  0.00    -0.293 N 
ATOM    143  C4    G A   6       9.948  74.300  27.572  1.00  0.00     0.187 A 
ATOM    144  N3    G A   6       9.204  75.341  27.145  1.00  0.00    -0.044 NA
ATOM    145  C2    G A   6       7.919  75.042  27.101  1.00  0.00     0.703 A 
ATOM    146  N2    G A   6       7.037  75.962  26.701  1.00  0.00    -0.233 N 
ATOM    147  H21   G A   6       7.363  76.880  26.436  1.00  0.00     0.174 HD
ATOM    148  H22   G A   6       6.051  75.743  26.671  1.00  0.00     0.174 HD
ATOM    149  N1    G A   6       7.403  73.820  27.444  1.00  0.00    -0.153 N 
ATOM    150  H1    G A   6       6.404  73.700  27.374  1.00  0.00     0.187 HD
ATOM    151  C6    G A   6       8.147  72.732  27.884  1.00  0.00     0.292 A 
ATOM    152  O6    G A   6       7.577  71.671  28.165  1.00  0.00    -0.265 OA
ATOM    153  C5    G A   6       9.532  73.038  27.940  1.00  0.00     0.173 A 
ATOM    154  N7    G A   6      10.614  72.254  28.320  1.00  0.00    -0.234 NA
ATOM    155  C8    G A   6      11.645  73.039  28.179  1.00  0.00     0.214 A 
ATOM    156  C2'   G A   6      11.917  76.653  28.300  1.00  0.00     0.199 C 
ATOM    157  O2'   G A   6      12.377  77.791  27.595  1.00  0.00    -0.388 OA
ATOM    158 'HO2   G A   6      12.596  78.450  28.254  1.00  0.00     0.210 HD
ATOM    159  C3'   G A   6      12.766  76.388  29.538  1.00  0.00     0.198 C 
ATOM    160  O3'   G A   6      13.077  77.583  30.250  1.00  0.00    -0.279 OA
ATOM    161  P     G A   7      12.199  78.003  31.532  1.00  0.00     0.408 P 
ATOM    162  OP1   G A   7      12.811  79.232  32.100  1.00  0.00    -0.624 OA
ATOM    163  OP2   G A   7      12.023  76.806  32.394  1.00  0.00    -0.624 OA
ATOM    164  O5'   G A   7      10.780  78.392  30.920  1.00  0.00    -0.287 OA
ATOM    165  C5'   G A   7      10.630  79.535  30.079  1.00  0.00     0.216 C 
ATOM    166  C4'   G A   7       9.188  79.685  29.652  1.00  0.00     0.180 C 
ATOM    167  O4'   G A   7       8.777  78.488  28.942  1.00  0.00    -0.353 OA
ATOM    168  C1'   G A   7       7.414  78.216  29.214  1.00  0.00     0.262 C 
ATOM    169  N9    G A   7       7.316  76.876  29.784  1.00  0.00    -0.293 N 
ATOM    170  C4    G A   7       6.165  76.152  29.972  1.00  0.00     0.187 A 
ATOM    171  N3    G A   7       4.915  76.557  29.666  1.00  0.00    -0.044 NA
ATOM    172  C2    G A   7       4.013  75.639  29.959  1.00  0.00     0.703 A 
ATOM    173  N2    G A   7       2.722  75.878  29.718  1.00  0.00    -0.233 N 
ATOM    174  H21   G A   7       2.450  76.762  29.313  1.00  0.00     0.174 HD
ATOM    175  H22   G A   7       2.026  75.180  29.936  1.00  0.00     0.174 HD
ATOM    176  N1    G A   7       4.310  74.419  30.508  1.00  0.00    -0.153 N 
ATOM    177  H1    G A   7       3.543  73.791  30.692  1.00  0.00     0.187 HD
ATOM    178  C6    G A   7       5.587  73.977  30.833  1.00  0.00     0.292 A 
ATOM    179  O6    G A   7       5.742  72.854  31.326  1.00  0.00    -0.265 OA
ATOM    180  C5    G A   7       6.571  74.954  30.524  1.00  0.00     0.173 A 
ATOM    181  N7    G A   7       7.950  74.928  30.683  1.00  0.00    -0.234 NA
ATOM    182  C8    G A   7       8.347  76.087  30.234  1.00  0.00     0.214 A 
ATOM    183  C2'   G A   7       6.890  79.318  30.137  1.00  0.00     0.199 C 
ATOM    184  O2'   G A   7       6.295  80.326  29.342  1.00  0.00    -0.388 OA
ATOM    185 'HO2   G A   7       6.217  81.106  29.892  1.00  0.00     0.210 HD
ATOM    186  C3'   G A   7       8.179  79.814  30.783  1.00  0.00     0.198 C 
ATOM    187  O3'   G A   7       8.075  81.161  31.237  1.00  0.00    -0.279 OA
ATOM    188  P     U A   8       7.657  81.462  32.761  1.00  0.00     0.408 P 
ATOM    189  OP1   U A   8       7.539  82.934  32.905  1.00  0.00    -0.624 OA
ATOM    190  OP2   U A   8       8.571  80.708  33.657  1.00  0.00    -0.624 OA
ATOM    191  O5'   U A   8       6.199  80.832  32.894  1.00  0.00    -0.287 OA
ATOM    192  C5'   U A   8       5.061  81.485  32.333  1.00  0.00     0.216 C 
ATOM    193  C4'   U A   8       3.812  80.681  32.606  1.00  0.00     0.180 C 
ATOM    194  O4'   U A   8       3.935  79.386  31.956  1.00  0.00    -0.353 OA
ATOM    195  C1'   U A   8       3.428  78.373  32.805  1.00  0.00     0.264 C 
ATOM    196  N1    U A   8       4.538  77.487  33.186  1.00  0.00    -0.280 N 
ATOM    197  C6    U A   8       5.831  77.953  33.265  1.00  0.00     0.104 A 
ATOM    198  C2    U A   8       4.239  76.167  33.465  1.00  0.00     0.331 A 
ATOM    199  O2    U A   8       3.108  75.718  33.403  1.00  0.00    -0.246 OA
ATOM    200  N3    U A   8       5.313  75.392  33.821  1.00  0.00    -0.275 N 
ATOM    201  H3    U A   8       5.128  74.423  34.026  1.00  0.00     0.173 HD
ATOM    202  C4    U A   8       6.626  75.792  33.921  1.00  0.00     0.250 A 
ATOM    203  O4    U A   8       7.479  74.977  34.271  1.00  0.00    -0.268 OA
ATOM    204  C5    U A   8       6.854  77.167  33.612  1.00  0.00     0.092 A 
ATOM    205  C2'   U A   8       2.761  79.062  33.994  1.00  0.00     0.199 C 
ATOM    206  O2'   U A   8       1.405  79.311  33.673  1.00  0.00    -0.388 OA
ATOM    207 'HO2   U A   8       1.246  80.235  33.867  1.00  0.00     0.210 HD
ATOM    208  C3'   U A   8       3.558  80.357  34.072  1.00  0.00     0.198 C 
ATOM    209  O3'   U A   8       2.840  81.403  34.720  1.00  0.00    -0.279 OA
ATOM    210  P     A A   9       2.853  81.506  36.325  1.00  0.00     0.408 P 
ATOM    211  OP1   A A   9       2.217  82.796  36.691  1.00  0.00    -0.624 OA
ATOM    212  OP2   A A   9       4.226  81.204  36.802  1.00  0.00    -0.624 OA
ATOM    213  O5'   A A   9       1.893  80.322  36.791  1.00  0.00    -0.287 OA
ATOM    214  C5'   A A   9       0.481  80.397  36.600  1.00  0.00     0.216 C 
ATOM    215  C4'   A A   9      -0.224  79.479  37.571  1.00  0.00     0.180 C 
ATOM    216  O4'   A A   9      -0.311  78.148  36.981  1.00  0.00    -0.353 OA
ATOM    217  C1'   A A   9       0.020  77.171  37.956  1.00  0.00     0.262 C 
ATOM    218  N9    A A   9       1.323  76.599  37.613  1.00  0.00    -0.294 N 
ATOM    219  C4    A A   9       1.650  75.265  37.601  1.00  0.00     0.167 A 
ATOM    220  N3    A A   9       0.851  74.224  37.896  1.00  0.00    -0.222 NA
ATOM    221  C2    A A   9       1.513  73.075  37.777  1.00  0.00     0.237 A 
ATOM    222  N1    A A   9       2.787  72.865  37.424  1.00  0.00    -0.222 NA
ATOM    223  C6    A A   9       3.563  73.931  37.135  1.00  0.00     0.155 A 
ATOM    224  N6    A A   9       4.832  73.719  36.785  1.00  0.00    -0.382 N 
ATOM    225  H61   A A   9       5.434  74.498  36.564  1.00  0.00     0.157 HD
ATOM    226  H62   A A   9       5.184  72.775  36.736  1.00  0.00     0.157 HD
ATOM    227  C5    A A   9       2.980  75.206  37.223  1.00  0.00     0.149 A 
ATOM    228  N7    A A   9       3.483  76.480  36.999  1.00  0.00    -0.236 NA
ATOM    229  C8    A A   9       2.465  77.268  37.243  1.00  0.00     0.214 A 
ATOM    230  C2'   A A   9      -0.011  77.881  39.306  1.00  0.00     0.199 C 
ATOM    231  O2'   A A   9      -1.356  77.866  39.744  1.00  0.00    -0.388 OA
ATOM    232 'HO2   A A   9      -1.878  78.304  39.072  1.00  0.00     0.210 HD
ATOM    233  C3'   A A   9       0.494  79.261  38.898  1.00  0.00     0.198 C 
ATOM    234  O3'   A A   9       0.253  80.327  39.829  1.00  0.00    -0.279 OA
ATOM    235  P     G A  10      -1.173  80.484  40.566  1.00  0.00     0.408 P 
ATOM    236  OP1   G A  10      -2.262  80.100  39.629  1.00  0.00    -0.624 OA
ATOM    237  OP2   G A  10      -1.191  81.835  41.181  1.00  0.00    -0.624 OA
ATOM    238  O5'   G A  10      -1.113  79.421  41.753  1.00  0.00    -0.287 OA
ATOM    239  C5'   G A  10       0.066  79.272  42.544  1.00  0.00     0.216 C 
ATOM    240  C4'   G A  10       0.259  77.822  42.923  1.00  0.00     0.180 C 
ATOM    241  O4'   G A  10       0.833  77.109  41.793  1.00  0.00    -0.353 OA
ATOM    242  C1'   G A  10       1.782  76.164  42.255  1.00  0.00     0.262 C 
ATOM    243  N9    G A  10       3.099  76.550  41.757  1.00  0.00    -0.293 N 
ATOM    244  C4    G A  10       4.116  75.701  41.397  1.00  0.00     0.187 A 
ATOM    245  N3    G A  10       4.071  74.354  41.423  1.00  0.00    -0.044 NA
ATOM    246  C2    G A  10       5.208  73.814  41.028  1.00  0.00     0.703 A 
ATOM    247  N2    G A  10       5.334  72.484  40.990  1.00  0.00    -0.233 N 
ATOM    248  H21   G A  10       4.553  71.908  41.266  1.00  0.00     0.174 HD
ATOM    249  H22   G A  10       6.203  72.060  40.698  1.00  0.00     0.174 HD
ATOM    250  N1    G A  10       6.306  74.537  40.638  1.00  0.00    -0.153 N 
ATOM    251  H1    G A  10       7.128  74.022  40.359  1.00  0.00     0.187 HD
ATOM    252  C6    G A  10       6.377  75.925  40.600  1.00  0.00     0.292 A 
ATOM    253  O6    G A  10       7.419  76.477  40.229  1.00  0.00    -0.265 OA
ATOM    254  C5    G A  10       5.160  76.521  41.021  1.00  0.00     0.173 A 
ATOM    255  N7    G A  10       4.804  77.858  41.134  1.00  0.00    -0.234 NA
ATOM    256  C8    G A  10       3.574  77.825  41.570  1.00  0.00     0.214 A 
ATOM    257  C2'   G A  10       1.694  76.141  43.780  1.00  0.00     0.199 C 
ATOM    258  O2'   G A  10       0.710  75.200  44.168  1.00  0.00    -0.388 OA
ATOM    259 'HO2   G A  10      -0.033  75.702  44.504  1.00  0.00     0.210 HD
ATOM    260  C3'   G A  10       1.238  77.566  44.062  1.00  0.00     0.198 C 
ATOM    261  O3'   G A  10       0.616  77.700  45.337  1.00  0.00    -0.279 OA
ATOM    262  P     C A  11       1.472  78.237  46.590  1.00  0.00     0.408 P 
ATOM    263  OP1   C A  11       0.536  78.399  47.731  1.00  0.00    -0.624 OA
ATOM    264  OP2   C A  11       2.287  79.396  46.141  1.00  0.00    -0.624 OA
ATOM    265  O5'   C A  11       2.464  77.036  46.924  1.00  0.00    -0.287 OA
ATOM    266  C5'   C A  11       1.968  75.783  47.395  1.00  0.00     0.216 C 
ATOM    267  C4'   C A  11       3.115  74.864  47.753  1.00  0.00     0.180 C 
ATOM    268  O4'   C A  11       3.825  74.500  46.537  1.00  0.00    -0.353 OA
ATOM    269  C1'   C A  11       5.221  74.470  46.788  1.00  0.00     0.264 C 
ATOM    270  N1    C A  11       5.858  75.534  45.992  1.00  0.00    -0.278 N 
ATOM    271  C6    C A  11       5.136  76.611  45.560  1.00  0.00     0.102 A 
ATOM    272  C2    C A  11       7.217  75.425  45.680  1.00  0.00     0.352 A 
ATOM    273  O2    C A  11       7.852  74.441  46.087  1.00  0.00    -0.244 OA
ATOM    274  N3    C A  11       7.806  76.395  44.947  1.00  0.00    -0.177 NA
ATOM    275  C4    C A  11       7.092  77.441  44.529  1.00  0.00     0.128 A 
ATOM    276  N4    C A  11       7.715  78.374  43.810  1.00  0.00    -0.384 N 
ATOM    277  H41   C A  11       7.208  79.180  43.477  1.00  0.00     0.157 HD
ATOM    278  H42   C A  11       8.697  78.269  43.596  1.00  0.00     0.157 HD
ATOM    279  C5    C A  11       5.706  77.579  44.833  1.00  0.00     0.067 A 
ATOM    280  C2'   C A  11       5.409  74.628  48.295  1.00  0.00     0.199 C 
ATOM    281  O2'   C A  11       5.350  73.349  48.895  1.00  0.00    -0.388 OA
ATOM    282 'HO2   C A  11       4.602  73.355  49.493  1.00  0.00     0.210 HD
ATOM    283  C3'   C A  11       4.187  75.462  48.653  1.00  0.00     0.198 C 
ATOM    284  O3'   C A  11       3.837  75.355  50.031  1.00  0.00    -0.279 OA
ATOM    285  P     C A  12       4.594  76.265  51.121  1.00  0.00     0.408 P 
ATOM    286  OP1   C A  12       3.971  75.986  52.440  1.00  0.00    -0.624 OA
ATOM    287  OP2   C A  12       4.649  77.660  50.614  1.00  0.00    -0.624 OA
ATOM    288  O5'   C A  12       6.081  75.688  51.141  1.00  0.00    -0.287 OA
ATOM    289  C5'   C A  12       6.341  74.345  51.541  1.00  0.00     0.216 C 
ATOM    290  C4'   C A  12       7.788  73.992  51.280  1.00  0.00     0.180 C 
ATOM    291  O4'   C A  12       8.068  74.134  49.861  1.00  0.00    -0.353 OA
ATOM    292  C1'   C A  12       9.391  74.610  49.680  1.00  0.00     0.264 C 
ATOM    293  N1    C A  12       9.330  75.900  48.975  1.00  0.00    -0.278 N 
ATOM    294  C6    C A  12       8.234  76.710  49.084  1.00  0.00     0.102 A 
ATOM    295  C2    C A  12      10.415  76.289  48.187  1.00  0.00     0.352 A 
ATOM    296  O2    C A  12      11.396  75.537  48.104  1.00  0.00    -0.244 OA
ATOM    297  N3    C A  12      10.372  77.472  47.536  1.00  0.00    -0.177 NA
ATOM    298  C4    C A  12       9.295  78.253  47.646  1.00  0.00     0.128 A 
ATOM    299  N4    C A  12       9.296  79.408  46.983  1.00  0.00    -0.384 N 
ATOM    300  H41   C A  12       8.501  80.027  47.040  1.00  0.00     0.157 HD
ATOM    301  H42   C A  12      10.098  79.663  46.422  1.00  0.00     0.157 HD
ATOM    302  C5    C A  12       8.172  77.883  48.441  1.00  0.00     0.067 A 
ATOM    303  C2'   C A  12      10.041  74.695  51.062  1.00  0.00     0.199 C 
ATOM    304  O2'   C A  12      10.681  73.463  51.338  1.00  0.00    -0.388 OA
ATOM    305 'HO2   C A  12      10.395  73.195  52.213  1.00  0.00     0.210 HD
ATOM    306  C3'   C A  12       8.818  74.891  51.949  1.00  0.00     0.198 C 
ATOM    307  O3'   C A  12       9.057  74.508  53.300  1.00  0.00    -0.279 OA
ATOM    308  P     A A  13       9.571  75.604  54.361  1.00  0.00     0.408 P 
ATOM    309  OP1   A A  13       9.663  74.929  55.682  1.00  0.00    -0.624 OA
ATOM    310  OP2   A A  13       8.737  76.824  54.220  1.00  0.00    -0.624 OA
ATOM    311  O5'   A A  13      11.049  75.948  53.875  1.00  0.00    -0.287 OA
ATOM    312  C5'   A A  13      12.069  74.952  53.870  1.00  0.00     0.216 C 
ATOM    313  C4'   A A  13      13.341  75.508  53.274  1.00  0.00     0.180 C 
ATOM    314  O4'   A A  13      13.146  75.737  51.854  1.00  0.00    -0.353 OA
ATOM    315  C1'   A A  13      13.936  76.839  51.440  1.00  0.00     0.262 C 
ATOM    316  N9    A A  13      13.058  77.824  50.809  1.00  0.00    -0.294 N 
ATOM    317  C4    A A  13      13.421  78.737  49.850  1.00  0.00     0.167 A 
ATOM    318  N3    A A  13      14.640  78.908  49.308  1.00  0.00    -0.222 NA
ATOM    319  C2    A A  13      14.620  79.890  48.409  1.00  0.00     0.237 A 
ATOM    320  N1    A A  13      13.597  80.660  48.019  1.00  0.00    -0.222 NA
ATOM    321  C6    A A  13      12.386  80.460  48.581  1.00  0.00     0.155 A 
ATOM    322  N6    A A  13      11.368  81.226  48.186  1.00  0.00    -0.382 N 
ATOM    323  H61   A A  13      10.452  81.094  48.590  1.00  0.00     0.157 HD
ATOM    324  H62   A A  13      11.524  81.936  47.487  1.00  0.00     0.157 HD
ATOM    325  C5    A A  13      12.274  79.450  49.552  1.00  0.00     0.149 A 
ATOM    326  N7    A A  13      11.204  78.995  50.311  1.00  0.00    -0.236 NA
ATOM    327  C8    A A  13      11.720  78.034  51.039  1.00  0.00     0.214 A 
ATOM    328  C2'   A A  13      14.675  77.370  52.671  1.00  0.00     0.199 C 
ATOM    329  O2'   A A  13      15.955  76.768  52.725  1.00  0.00    -0.388 OA
ATOM    330 'HO2   A A  13      16.063  76.440  53.619  1.00  0.00     0.210 HD
ATOM    331  C3'   A A  13      13.786  76.863  53.800  1.00  0.00     0.198 C 
ATOM    332  O3'   A A  13      14.486  76.746  55.035  1.00  0.00    -0.279 OA
ATOM    333  P     A A  14      14.599  78.018  56.015  1.00  0.00     0.408 P 
ATOM    334  OP1   A A  14      15.190  77.540  57.291  1.00  0.00    -0.624 OA
ATOM    335  OP2   A A  14      13.289  78.718  56.032  1.00  0.00    -0.624 OA
ATOM    336  O5'   A A  14      15.662  78.966  55.301  1.00  0.00    -0.287 OA
ATOM    337  C5'   A A  14      17.008  78.539  55.094  1.00  0.00     0.216 C 
ATOM    338  C4'   A A  14      17.665  79.375  54.020  1.00  0.00     0.180 C 
ATOM    339  O4'   A A  14      16.694  79.637  52.966  1.00  0.00    -0.353 OA
ATOM    340  C1'   A A  14      16.457  81.028  52.868  1.00  0.00     0.262 C 
ATOM    341  N9    A A  14      15.031  81.237  52.620  1.00  0.00    -0.294 N 
ATOM    342  C4    A A  14      14.480  82.008  51.625  1.00  0.00     0.167 A 
ATOM    343  N3    A A  14      15.130  82.717  50.688  1.00  0.00    -0.222 NA
ATOM    344  C2    A A  14      14.269  83.342  49.889  1.00  0.00     0.237 A 
ATOM    345  N1    A A  14      12.929  83.338  49.921  1.00  0.00    -0.222 NA
ATOM    346  C6    A A  14      12.307  82.614  50.876  1.00  0.00     0.155 A 
ATOM    347  N6    A A  14      10.974  82.609  50.906  1.00  0.00    -0.382 N 
ATOM    348  H61   A A  14      10.491  82.073  51.611  1.00  0.00     0.157 HD
ATOM    349  H62   A A  14      10.454  83.144  50.226  1.00  0.00     0.157 HD
ATOM    350  C5    A A  14      13.110  81.905  51.784  1.00  0.00     0.149 A 
ATOM    351  N7    A A  14      12.802  81.083  52.860  1.00  0.00    -0.236 NA
ATOM    352  C8    A A  14      13.972  80.715  53.319  1.00  0.00     0.214 A 
ATOM    353  C2'   A A  14      16.960  81.647  54.170  1.00  0.00     0.199 C 
ATOM    354  O2'   A A  14      17.366  82.979  53.917  1.00  0.00    -0.388 OA
ATOM    355 'HO2   A A  14      18.135  82.936  53.346  1.00  0.00     0.210 HD
ATOM    356  C3'   A A  14      18.152  80.748  54.474  1.00  0.00     0.198 C 
ATOM    357  O3'   A A  14      19.322  81.141  53.760  1.00  0.00    -0.279 OA
ATOM    358  P     G A  15      20.563  81.790  54.550  1.00  0.00     0.408 P 
ATOM    359  OP1   G A  15      21.567  80.715  54.752  1.00  0.00    -0.624 OA
ATOM    360  OP2   G A  15      20.044  82.538  55.723  1.00  0.00    -0.624 OA
ATOM    361  O5'   G A  15      21.171  82.842  53.517  1.00  0.00    -0.287 OA
ATOM    362  C5'   G A  15      21.459  82.471  52.167  1.00  0.00     0.216 C 
ATOM    363  C4'   G A  15      20.185  82.429  51.352  1.00  0.00     0.180 C 
ATOM    364  O4'   G A  15      19.264  83.437  51.856  1.00  0.00    -0.353 OA
ATOM    365  C1'   G A  15      18.597  84.061  50.772  1.00  0.00     0.262 C 
ATOM    366  N9    G A  15      18.998  85.465  50.732  1.00  0.00    -0.293 N 
ATOM    367  C4    G A  15      18.305  86.496  50.146  1.00  0.00     0.187 A 
ATOM    368  N3    G A  15      17.122  86.394  49.505  1.00  0.00    -0.044 NA
ATOM    369  C2    G A  15      16.708  87.560  49.045  1.00  0.00     0.703 A 
ATOM    370  N2    G A  15      15.550  87.638  48.382  1.00  0.00    -0.233 N 
ATOM    371  H21   G A  15      15.004  86.801  48.242  1.00  0.00     0.174 HD
ATOM    372  H22   G A  15      15.227  88.522  48.019  1.00  0.00     0.174 HD
ATOM    373  N1    G A  15      17.397  88.736  49.199  1.00  0.00    -0.153 N 
ATOM    374  H1    G A  15      16.992  89.572  48.808  1.00  0.00     0.187 HD
ATOM    375  C6    G A  15      18.615  88.867  49.854  1.00  0.00     0.292 A 
ATOM    376  O6    G A  15      19.152  89.978  49.935  1.00  0.00    -0.265 OA
ATOM    377  C5    G A  15      19.075  87.621  50.355  1.00  0.00     0.173 A 
ATOM    378  N7    G A  15      20.227  87.303  51.063  1.00  0.00    -0.234 NA
ATOM    379  C8    G A  15      20.136  86.017  51.264  1.00  0.00     0.214 A 
ATOM    380  C2'   G A  15      18.960  83.286  49.507  1.00  0.00     0.199 C 
ATOM    381  O2'   G A  15      18.038  82.225  49.340  1.00  0.00    -0.388 OA
ATOM    382 'HO2   G A  15      18.553  81.422  49.255  1.00  0.00     0.210 HD
ATOM    383  C3'   G A  15      20.342  82.761  49.874  1.00  0.00     0.198 C 
ATOM    384  O3'   G A  15      20.708  81.614  49.110  1.00  0.00    -0.279 OA
ATOM    385  P     U A  16      21.264  81.799  47.610  1.00  0.00     0.408 P 
ATOM    386  OP1   U A  16      20.983  80.535  46.882  1.00  0.00    -0.624 OA
ATOM    387  OP2   U A  16      22.659  82.302  47.691  1.00  0.00    -0.624 OA
ATOM    388  O5'   U A  16      20.353  82.954  46.998  1.00  0.00    -0.287 OA
ATOM    389  C5'   U A  16      19.878  82.894  45.651  1.00  0.00     0.216 C 
ATOM    390  C4'   U A  16      18.470  83.442  45.569  1.00  0.00     0.180 C 
ATOM    391  O4'   U A  16      18.227  84.283  46.734  1.00  0.00    -0.353 OA
ATOM    392  C1'   U A  16      17.662  85.515  46.329  1.00  0.00     0.264 C 
ATOM    393  N1    U A  16      18.683  86.564  46.480  1.00  0.00    -0.280 N 
ATOM    394  C6    U A  16      19.987  86.252  46.794  1.00  0.00     0.104 A 
ATOM    395  C2    U A  16      18.290  87.879  46.296  1.00  0.00     0.331 A 
ATOM    396  O2    U A  16      17.147  88.198  46.019  1.00  0.00    -0.246 OA
ATOM    397  N3    U A  16      19.287  88.808  46.451  1.00  0.00    -0.275 N 
ATOM    398  H3    U A  16      19.027  89.774  46.325  1.00  0.00     0.173 HD
ATOM    399  C4    U A  16      20.605  88.566  46.761  1.00  0.00     0.250 A 
ATOM    400  O4    U A  16      21.386  89.512  46.851  1.00  0.00    -0.268 OA
ATOM    401  C5    U A  16      20.932  87.186  46.936  1.00  0.00     0.092 A 
ATOM    402  C2'   U A  16      17.165  85.325  44.899  1.00  0.00     0.199 C 
ATOM    403  O2'   U A  16      15.869  84.758  44.943  1.00  0.00    -0.388 OA
ATOM    404 'HO2   U A  16      15.954  83.842  44.670  1.00  0.00     0.210 HD
ATOM    405  C3'   U A  16      18.190  84.333  44.362  1.00  0.00     0.198 C 
ATOM    406  O3'   U A  16      17.683  83.581  43.261  1.00  0.00    -0.279 OA
ATOM    407  P     G A  17      18.700  82.920  42.203  1.00  0.00     0.408 P 
ATOM    408  OP1   G A  17      19.999  83.634  42.309  1.00  0.00    -0.624 OA
ATOM    409  OP2   G A  17      18.010  82.845  40.890  1.00  0.00    -0.624 OA
ATOM    410  O5'   G A  17      18.910  81.436  42.745  1.00  0.00    -0.287 OA
ATOM    411  C5'   G A  17      19.165  80.353  41.851  1.00  0.00     0.216 C 
ATOM    412  C4'   G A  17      19.001  79.031  42.567  1.00  0.00     0.180 C 
ATOM    413  O4'   G A  17      18.454  79.270  43.893  1.00  0.00    -0.353 OA
ATOM    414  C1'   G A  17      17.526  78.249  44.219  1.00  0.00     0.262 C 
ATOM    415  N9    G A  17      16.210  78.855  44.387  1.00  0.00    -0.293 N 
ATOM    416  C4    G A  17      15.167  78.343  45.117  1.00  0.00     0.187 A 
ATOM    417  N3    G A  17      15.181  77.188  45.815  1.00  0.00    -0.044 NA
ATOM    418  C2    G A  17      14.027  76.961  46.415  1.00  0.00     0.703 A 
ATOM    419  N2    G A  17      13.871  75.858  47.151  1.00  0.00    -0.233 N 
ATOM    420  H21   G A  17      14.638  75.208  47.241  1.00  0.00     0.174 HD
ATOM    421  H22   G A  17      12.991  75.673  47.614  1.00  0.00     0.174 HD
ATOM    422  N1    G A  17      12.943  77.797  46.338  1.00  0.00    -0.153 N 
ATOM    423  H1    G A  17      12.108  77.530  46.837  1.00  0.00     0.187 HD
ATOM    424  C6    G A  17      12.903  78.991  45.627  1.00  0.00     0.292 A 
ATOM    425  O6    G A  17      11.871  79.671  45.625  1.00  0.00    -0.265 OA
ATOM    426  C5    G A  17      14.138  79.252  44.976  1.00  0.00     0.173 A 
ATOM    427  N7    G A  17      14.529  80.316  44.173  1.00  0.00    -0.234 NA
ATOM    428  C8    G A  17      15.762  80.037  43.849  1.00  0.00     0.214 A 
ATOM    429  C2'   G A  17      17.575  77.207  43.102  1.00  0.00     0.199 C 
ATOM    430  O2'   G A  17      18.543  76.230  43.435  1.00  0.00    -0.388 OA
ATOM    431 'HO2   G A  17      18.102  75.380  43.402  1.00  0.00     0.210 HD
ATOM    432  C3'   G A  17      18.019  78.061  41.922  1.00  0.00     0.198 C 
ATOM    433  O3'   G A  17      18.636  77.291  40.892  1.00  0.00    -0.279 OA
ATOM    434  P     G A  18      17.722  76.517  39.818  1.00  0.00     0.408 P 
ATOM    435  OP1   G A  18      18.637  75.894  38.827  1.00  0.00    -0.624 OA
ATOM    436  OP2   G A  18      16.656  77.439  39.352  1.00  0.00    -0.624 OA
ATOM    437  O5'   G A  18      17.036  75.350  40.660  1.00  0.00    -0.287 OA
ATOM    438  C5'   G A  18      17.767  74.183  41.033  1.00  0.00     0.216 C 
ATOM    439  C4'   G A  18      16.940  73.321  41.957  1.00  0.00     0.180 C 
ATOM    440  O4'   G A  18      16.390  74.149  43.017  1.00  0.00    -0.353 OA
ATOM    441  C1'   G A  18      15.118  73.653  43.395  1.00  0.00     0.262 C 
ATOM    442  N9    G A  18      14.137  74.721  43.235  1.00  0.00    -0.293 N 
ATOM    443  C4    G A  18      12.904  74.790  43.836  1.00  0.00     0.187 A 
ATOM    444  N3    G A  18      12.384  73.878  44.683  1.00  0.00    -0.044 NA
ATOM    445  C2    G A  18      11.175  74.218  45.092  1.00  0.00     0.703 A 
ATOM    446  N2    G A  18      10.512  73.421  45.934  1.00  0.00    -0.233 N 
ATOM    447  H21   G A  18      10.943  72.567  46.251  1.00  0.00     0.174 HD
ATOM    448  H22   G A  18       9.585  73.673  46.250  1.00  0.00     0.174 HD
ATOM    449  N1    G A  18      10.527  75.362  44.704  1.00  0.00    -0.153 N 
ATOM    450  H1    G A  18       9.605  75.527  45.077  1.00  0.00     0.187 HD
ATOM    451  C6    G A  18      11.043  76.318  43.836  1.00  0.00     0.292 A 
ATOM    452  O6    G A  18      10.372  77.317  43.555  1.00  0.00    -0.265 OA
ATOM    453  C5    G A  18      12.341  75.965  43.384  1.00  0.00     0.173 A 
ATOM    454  N7    G A  18      13.204  76.623  42.517  1.00  0.00    -0.234 NA
ATOM    455  C8    G A  18      14.252  75.849  42.459  1.00  0.00     0.214 A 
ATOM    456  C2'   G A  18      14.817  72.423  42.534  1.00  0.00     0.199 C 
ATOM    457  O2'   G A  18      15.219  71.265  43.243  1.00  0.00    -0.388 OA
ATOM    458 'HO2   G A  18      15.855  70.815  42.686  1.00  0.00     0.210 HD
ATOM    459  C3'   G A  18      15.718  72.667  41.329  1.00  0.00     0.198 C 
ATOM    460  O3'   G A  18      16.058  71.457  40.655  1.00  0.00    -0.279 OA
ATOM    461  P     C A  19      15.139  70.930  39.443  1.00  0.00     0.408 P 
ATOM    462  OP1   C A  19      15.697  69.630  38.992  1.00  0.00    -0.624 OA
ATOM    463  OP2   C A  19      14.977  72.037  38.466  1.00  0.00    -0.624 OA
ATOM    464  O5'   C A  19      13.724  70.651  40.120  1.00  0.00    -0.287 OA
ATOM    465  C5'   C A  19      13.579  69.675  41.152  1.00  0.00     0.216 C 
ATOM    466  C4'   C A  19      12.117  69.361  41.373  1.00  0.00     0.180 C 
ATOM    467  O4'   C A  19      11.418  70.599  41.691  1.00  0.00    -0.353 OA
ATOM    468  C1'   C A  19      10.465  70.879  40.684  1.00  0.00     0.264 C 
ATOM    469  N1    C A  19      10.478  72.325  40.417  1.00  0.00    -0.278 N 
ATOM    470  C6    C A  19      11.639  72.965  40.083  1.00  0.00     0.102 A 
ATOM    471  C2    C A  19       9.280  73.038  40.504  1.00  0.00     0.352 A 
ATOM    472  O2    C A  19       8.243  72.436  40.823  1.00  0.00    -0.244 OA
ATOM    473  N3    C A  19       9.279  74.361  40.241  1.00  0.00    -0.177 NA
ATOM    474  C4    C A  19      10.414  74.975  39.905  1.00  0.00     0.128 A 
ATOM    475  N4    C A  19      10.358  76.279  39.639  1.00  0.00    -0.384 N 
ATOM    476  H41   C A  19      11.189  76.788  39.376  1.00  0.00     0.157 HD
ATOM    477  H42   C A  19       9.465  76.749  39.692  1.00  0.00     0.157 HD
ATOM    478  C5    C A  19      11.654  74.277  39.821  1.00  0.00     0.067 A 
ATOM    479  C2'   C A  19      10.841  70.027  39.476  1.00  0.00     0.199 C 
ATOM    480  O2'   C A  19       9.668  69.736  38.738  1.00  0.00    -0.388 OA
ATOM    481 'HO2   C A  19       9.329  68.907  39.077  1.00  0.00     0.210 HD
ATOM    482  C3'   C A  19      11.387  68.784  40.162  1.00  0.00     0.198 C 
ATOM    483  O3'   C A  19      10.344  67.891  40.545  1.00  0.00    -0.279 OA
ATOM    484  P     C A  20      10.621  66.306  40.608  1.00  0.00     0.408 P 
ATOM    485  OP1   C A  20      11.904  66.034  39.911  1.00  0.00    -0.624 OA
ATOM    486  OP2   C A  20       9.387  65.609  40.167  1.00  0.00    -0.624 OA
ATOM    487  O5'   C A  20      10.831  66.014  42.161  1.00  0.00    -0.287 OA
ATOM    488  C5'   C A  20      10.227  66.840  43.154  1.00  0.00     0.216 C 
ATOM    489  C4'   C A  20       9.570  65.985  44.213  1.00  0.00     0.180 C 
ATOM    490  O4'   C A  20      10.366  66.062  45.430  1.00  0.00    -0.353 OA
ATOM    491  C1'   C A  20       9.593  66.618  46.474  1.00  0.00     0.264 C 
ATOM    492  N1    C A  20      10.459  67.500  47.272  1.00  0.00    -0.278 N 
ATOM    493  C6    C A  20      11.099  68.563  46.697  1.00  0.00     0.102 A 
ATOM    494  C2    C A  20      10.621  67.233  48.634  1.00  0.00     0.352 A 
ATOM    495  O2    C A  20      10.027  66.264  49.129  1.00  0.00    -0.244 OA
ATOM    496  N3    C A  20      11.416  68.036  49.375  1.00  0.00    -0.177 NA
ATOM    497  C4    C A  20      12.036  69.069  48.805  1.00  0.00     0.128 A 
ATOM    498  N4    C A  20      12.811  69.831  49.575  1.00  0.00    -0.384 N 
ATOM    499  H41   C A  20      13.297  70.622  49.177  1.00  0.00     0.157 HD
ATOM    500  H42   C A  20      12.910  69.617  50.556  1.00  0.00     0.157 HD
ATOM    501  C5    C A  20      11.889  69.367  47.419  1.00  0.00     0.067 A 
ATOM    502  C2'   C A  20       8.415  67.328  45.812  1.00  0.00     0.199 C 
ATOM    503  O2'   C A  20       7.315  67.315  46.702  1.00  0.00    -0.388 OA
ATOM    504 'HO2   C A  20       6.737  66.608  46.415  1.00  0.00     0.210 HD
ATOM    505  C3'   C A  20       8.164  66.422  44.613  1.00  0.00     0.198 C 
ATOM    506  O3'   C A  20       7.342  65.306  44.942  1.00  0.00    -0.279 OA
ATOM    507  P     A A  21       6.277  64.753  43.872  1.00  0.00     0.408 P 
ATOM    508  OP1   A A  21       6.838  64.989  42.517  1.00  0.00    -0.624 OA
ATOM    509  OP2   A A  21       5.887  63.378  44.274  1.00  0.00    -0.624 OA
ATOM    510  O5'   A A  21       5.015  65.709  44.054  1.00  0.00    -0.287 OA
ATOM    511  C5'   A A  21       4.196  65.635  45.222  1.00  0.00     0.216 C 
ATOM    512  C4'   A A  21       2.947  66.466  45.036  1.00  0.00     0.180 C 
ATOM    513  O4'   A A  21       3.287  67.864  45.250  1.00  0.00    -0.353 OA
ATOM    514  C1'   A A  21       3.182  68.576  44.032  1.00  0.00     0.262 C 
ATOM    515  N9    A A  21       4.359  69.434  43.901  1.00  0.00    -0.294 N 
ATOM    516  C4    A A  21       4.380  70.807  43.955  1.00  0.00     0.167 A 
ATOM    517  N3    A A  21       3.336  71.633  44.137  1.00  0.00    -0.222 NA
ATOM    518  C2    A A  21       3.737  72.903  44.134  1.00  0.00     0.237 A 
ATOM    519  N1    A A  21       4.970  73.402  43.981  1.00  0.00    -0.222 NA
ATOM    520  C6    A A  21       5.996  72.545  43.800  1.00  0.00     0.155 A 
ATOM    521  N6    A A  21       7.222  73.043  43.646  1.00  0.00    -0.382 N 
ATOM    522  H61   A A  21       8.005  72.420  43.508  1.00  0.00     0.157 HD
ATOM    523  H62   A A  21       7.362  74.042  43.660  1.00  0.00     0.157 HD
ATOM    524  C5    A A  21       5.705  71.170  43.784  1.00  0.00     0.149 A 
ATOM    525  N7    A A  21       6.505  70.047  43.623  1.00  0.00    -0.236 NA
ATOM    526  C8    A A  21       5.660  69.047  43.700  1.00  0.00     0.214 A 
ATOM    527  C2'   A A  21       3.042  67.546  42.914  1.00  0.00     0.199 C 
ATOM    528  O2'   A A  21       2.235  68.102  41.891  1.00  0.00    -0.388 OA
ATOM    529 'HO2   A A  21       1.741  67.382  41.490  1.00  0.00     0.210 HD
ATOM    530  C3'   A A  21       2.327  66.414  43.643  1.00  0.00     0.198 C 
ATOM    531  O3'   A A  21       0.916  66.605  43.698  1.00  0.00    -0.279 OA
ATOM    532  P     A A  22      -0.034  65.849  42.643  1.00  0.00     0.408 P 
ATOM    533  OP1   A A  22       0.210  64.392  42.799  1.00  0.00    -0.624 OA
ATOM    534  OP2   A A  22      -1.412  66.383  42.792  1.00  0.00    -0.624 OA
ATOM    535  O5'   A A  22       0.531  66.307  41.224  1.00  0.00    -0.287 OA
ATOM    536  C5'   A A  22       0.735  65.365  40.174  1.00  0.00     0.216 C 
ATOM    537  C4'   A A  22       0.843  66.079  38.847  1.00  0.00     0.180 C 
ATOM    538  O4'   A A  22      -0.359  66.878  38.658  1.00  0.00    -0.353 OA
ATOM    539  C1'   A A  22      -0.004  68.228  38.445  1.00  0.00     0.262 C 
ATOM    540  N9    A A  22      -1.021  69.077  39.064  1.00  0.00    -0.294 N 
ATOM    541  C4    A A  22      -1.452  70.299  38.607  1.00  0.00     0.167 A 
ATOM    542  N3    A A  22      -1.032  70.953  37.511  1.00  0.00    -0.222 NA
ATOM    543  C2    A A  22      -1.674  72.112  37.381  1.00  0.00     0.237 A 
ATOM    544  N1    A A  22      -2.617  72.650  38.165  1.00  0.00    -0.222 NA
ATOM    545  C6    A A  22      -3.016  71.966  39.259  1.00  0.00     0.155 A 
ATOM    546  N6    A A  22      -3.954  72.503  40.038  1.00  0.00    -0.382 N 
ATOM    547  H61   A A  22      -4.267  72.009  40.861  1.00  0.00     0.157 HD
ATOM    548  H62   A A  22      -4.346  73.404  39.802  1.00  0.00     0.157 HD
ATOM    549  C5    A A  22      -2.412  70.721  39.508  1.00  0.00     0.149 A 
ATOM    550  N7    A A  22      -2.585  69.784  40.517  1.00  0.00    -0.236 NA
ATOM    551  C8    A A  22      -1.739  68.830  40.208  1.00  0.00     0.214 A 
ATOM    552  C2'   A A  22       1.393  68.404  39.031  1.00  0.00     0.199 C 
ATOM    553  O2'   A A  22       2.052  69.443  38.330  1.00  0.00    -0.388 OA
ATOM    554 'HO2   A A  22       2.276  69.096  37.466  1.00  0.00     0.210 HD
ATOM    555  C3'   A A  22       2.017  67.047  38.722  1.00  0.00     0.198 C 
ATOM    556  O3'   A A  22       2.586  67.000  37.415  1.00  0.00    -0.279 OA
ATOM    557  P     A A  23       4.165  66.740  37.233  1.00  0.00     0.408 P 
ATOM    558  OP1   A A  23       4.752  67.992  36.690  1.00  0.00    -0.624 OA
ATOM    559  OP2   A A  23       4.712  66.156  38.484  1.00  0.00    -0.624 OA
ATOM    560  O5'   A A  23       4.240  65.630  36.091  1.00  0.00    -0.287 OA
ATOM    561  C5'   A A  23       3.892  64.271  36.358  1.00  0.00     0.216 C 
ATOM    562  C4'   A A  23       2.864  63.792  35.360  1.00  0.00     0.180 C 
ATOM    563  O4'   A A  23       3.549  63.029  34.327  1.00  0.00    -0.353 OA
ATOM    564  C1'   A A  23       3.022  61.720  34.273  1.00  0.00     0.262 C 
ATOM    565  N9    A A  23       4.111  60.794  33.965  1.00  0.00    -0.294 N 
ATOM    566  C4    A A  23       4.045  59.717  33.115  1.00  0.00     0.167 A 
ATOM    567  N3    A A  23       2.982  59.304  32.403  1.00  0.00    -0.222 NA
ATOM    568  C2    A A  23       3.288  58.224  31.688  1.00  0.00     0.237 A 
ATOM    569  N1    A A  23       4.448  57.561  31.608  1.00  0.00    -0.222 NA
ATOM    570  C6    A A  23       5.497  58.003  32.335  1.00  0.00     0.155 A 
ATOM    571  N6    A A  23       6.651  57.342  32.253  1.00  0.00    -0.382 N 
ATOM    572  H61   A A  23       7.449  57.652  32.787  1.00  0.00     0.157 HD
ATOM    573  H62   A A  23       6.722  56.533  31.654  1.00  0.00     0.157 HD
ATOM    574  C5    A A  23       5.302  59.141  33.138  1.00  0.00     0.149 A 
ATOM    575  N7    A A  23       6.148  59.841  33.989  1.00  0.00    -0.236 NA
ATOM    576  C8    A A  23       5.395  60.809  34.454  1.00  0.00     0.214 A 
ATOM    577  C2'   A A  23       2.349  61.473  35.618  1.00  0.00     0.199 C 
ATOM    578  O2'   A A  23       1.305  60.534  35.441  1.00  0.00    -0.388 OA
ATOM    579 'HO2   A A  23       0.542  61.030  35.140  1.00  0.00     0.210 HD
ATOM    580  C3'   A A  23       1.795  62.859  35.925  1.00  0.00     0.198 C 
ATOM    581  O3'   A A  23       0.530  63.075  35.304  1.00  0.00    -0.279 OA
ATOM    582  P     G A  24      -0.571  63.999  36.027  1.00  0.00     0.408 P 
ATOM    583  OP1   G A  24      -1.803  63.935  35.200  1.00  0.00    -0.624 OA
ATOM    584  OP2   G A  24      -0.632  63.618  37.461  1.00  0.00    -0.624 OA
ATOM    585  O5'   G A  24       0.031  65.470  35.917  1.00  0.00    -0.287 OA
ATOM    586  C5'   G A  24       0.057  66.164  34.670  1.00  0.00     0.216 C 
ATOM    587  C4'   G A  24      -1.146  67.069  34.553  1.00  0.00     0.180 C 
ATOM    588  O4'   G A  24      -1.046  68.109  35.567  1.00  0.00    -0.353 OA
ATOM    589  C1'   G A  24      -1.259  69.376  34.978  1.00  0.00     0.262 C 
ATOM    590  N9    G A  24       0.025  70.067  34.903  1.00  0.00    -0.293 N 
ATOM    591  C4    G A  24       0.236  71.370  34.519  1.00  0.00     0.187 A 
ATOM    592  N3    G A  24      -0.714  72.251  34.139  1.00  0.00    -0.044 NA
ATOM    593  C2    G A  24      -0.199  73.427  33.829  1.00  0.00     0.703 A 
ATOM    594  N2    G A  24      -1.002  74.417  33.429  1.00  0.00    -0.233 N 
ATOM    595  H21   G A  24      -1.996  74.252  33.370  1.00  0.00     0.174 HD
ATOM    596  H22   G A  24      -0.620  75.320  33.188  1.00  0.00     0.174 HD
ATOM    597  N1    G A  24       1.139  73.720  33.885  1.00  0.00    -0.153 N 
ATOM    598  H1    G A  24       1.433  74.652  33.628  1.00  0.00     0.187 HD
ATOM    599  C6    G A  24       2.135  72.829  34.270  1.00  0.00     0.292 A 
ATOM    600  O6    G A  24       3.315  73.195  34.281  1.00  0.00    -0.265 OA
ATOM    601  C5    G A  24       1.598  71.561  34.608  1.00  0.00     0.173 A 
ATOM    602  N7    G A  24       2.232  70.404  35.039  1.00  0.00    -0.234 NA
ATOM    603  C8    G A  24       1.262  69.549  35.202  1.00  0.00     0.214 A 
ATOM    604  C2'   G A  24      -1.916  69.128  33.623  1.00  0.00     0.199 C 
ATOM    605  O2'   G A  24      -3.310  68.977  33.812  1.00  0.00    -0.388 OA
ATOM    606 'HO2   G A  24      -3.528  68.086  33.540  1.00  0.00     0.210 HD
ATOM    607  C3'   G A  24      -1.270  67.806  33.223  1.00  0.00     0.198 C 
ATOM    608  O3'   G A  24      -2.067  67.072  32.297  1.00  0.00    -0.279 OA
ATOM    609  P     C A  25      -1.595  66.938  30.764  1.00  0.00     0.408 P 
ATOM    610  OP1   C A  25      -2.642  66.170  30.043  1.00  0.00    -0.624 OA
ATOM    611  OP2   C A  25      -0.189  66.459  30.746  1.00  0.00    -0.624 OA
ATOM    612  O5'   C A  25      -1.616  68.436  30.223  1.00  0.00    -0.287 OA
ATOM    613  C5'   C A  25      -2.820  69.202  30.230  1.00  0.00     0.216 C 
ATOM    614  C4'   C A  25      -2.506  70.667  30.036  1.00  0.00     0.180 C 
ATOM    615  O4'   C A  25      -1.766  71.153  31.188  1.00  0.00    -0.353 OA
ATOM    616  C1'   C A  25      -0.795  72.098  30.766  1.00  0.00     0.264 C 
ATOM    617  N1    C A  25       0.542  71.576  31.097  1.00  0.00    -0.278 N 
ATOM    618  C6    C A  25       0.712  70.282  31.506  1.00  0.00     0.102 A 
ATOM    619  C2    C A  25       1.644  72.427  30.983  1.00  0.00     0.352 A 
ATOM    620  O2    C A  25       1.464  73.596  30.610  1.00  0.00    -0.244 OA
ATOM    621  N3    C A  25       2.875  71.961  31.283  1.00  0.00    -0.177 NA
ATOM    622  C4    C A  25       3.030  70.699  31.686  1.00  0.00     0.128 A 
ATOM    623  N4    C A  25       4.263  70.286  31.974  1.00  0.00    -0.384 N 
ATOM    624  H41   C A  25       4.424  69.339  32.284  1.00  0.00     0.157 HD
ATOM    625  H42   C A  25       5.039  70.930  31.887  1.00  0.00     0.157 HD
ATOM    626  C5    C A  25       1.926  69.807  31.811  1.00  0.00     0.067 A 
ATOM    627  C2'   C A  25      -1.006  72.330  29.271  1.00  0.00     0.199 C 
ATOM    628  O2'   C A  25      -1.933  73.386  29.103  1.00  0.00    -0.388 OA
ATOM    629 'HO2   C A  25      -2.598  73.075  28.487  1.00  0.00     0.210 HD
ATOM    630  C3'   C A  25      -1.607  70.996  28.853  1.00  0.00     0.198 C 
ATOM    631  O3'   C A  25      -2.343  71.082  27.635  1.00  0.00    -0.279 OA
ATOM    632  P     C A  26      -1.636  70.688  26.245  1.00  0.00     0.408 P 
ATOM    633  OP1   C A  26      -2.701  70.605  25.214  1.00  0.00    -0.624 OA
ATOM    634  OP2   C A  26      -0.748  69.520  26.478  1.00  0.00    -0.624 OA
ATOM    635  O5'   C A  26      -0.717  71.946  25.909  1.00  0.00    -0.287 OA
ATOM    636  C5'   C A  26      -1.284  73.245  25.741  1.00  0.00     0.216 C 
ATOM    637  C4'   C A  26      -0.191  74.276  25.588  1.00  0.00     0.180 C 
ATOM    638  O4'   C A  26       0.546  74.382  26.838  1.00  0.00    -0.353 OA
ATOM    639  C1'   C A  26       1.920  74.600  26.563  1.00  0.00     0.264 C 
ATOM    640  N1    C A  26       2.690  73.457  27.082  1.00  0.00    -0.278 N 
ATOM    641  C6    C A  26       2.077  72.268  27.368  1.00  0.00     0.102 A 
ATOM    642  C2    C A  26       4.064  73.605  27.278  1.00  0.00     0.352 A 
ATOM    643  O2    C A  26       4.597  74.690  27.008  1.00  0.00    -0.244 OA
ATOM    644  N3    C A  26       4.781  72.563  27.754  1.00  0.00    -0.177 NA
ATOM    645  C4    C A  26       4.174  71.410  28.034  1.00  0.00     0.128 A 
ATOM    646  N4    C A  26       4.922  70.413  28.504  1.00  0.00    -0.384 N 
ATOM    647  H41   C A  26       4.506  69.522  28.729  1.00  0.00     0.157 HD
ATOM    648  H42   C A  26       5.914  70.558  28.637  1.00  0.00     0.157 HD
ATOM    649  C5    C A  26       2.773  71.228  27.844  1.00  0.00     0.067 A 
ATOM    650  C2'   C A  26       2.055  74.786  25.052  1.00  0.00     0.199 C 
ATOM    651  O2'   C A  26       1.881  76.156  24.744  1.00  0.00    -0.388 OA
ATOM    652 'HO2   C A  26       1.373  76.194  23.933  1.00  0.00     0.210 HD
ATOM    653  C3'   C A  26       0.880  73.954  24.556  1.00  0.00     0.198 C 
ATOM    654  O3'   C A  26       0.478  74.309  23.236  1.00  0.00    -0.279 OA
ATOM    655  P     C A  27       1.133  73.557  21.974  1.00  0.00     0.408 P 
ATOM    656  OP1   C A  27       0.357  73.953  20.770  1.00  0.00    -0.624 OA
ATOM    657  OP2   C A  27       1.287  72.118  22.306  1.00  0.00    -0.624 OA
ATOM    658  O5'   C A  27       2.589  74.195  21.857  1.00  0.00    -0.287 OA
ATOM    659  C5'   C A  27       2.764  75.566  21.508  1.00  0.00     0.216 C 
ATOM    660  C4'   C A  27       4.211  75.968  21.670  1.00  0.00     0.180 C 
ATOM    661  O4'   C A  27       4.638  75.696  23.032  1.00  0.00    -0.353 OA
ATOM    662  C1'   C A  27       6.011  75.339  23.034  1.00  0.00     0.264 C 
ATOM    663  N1    C A  27       6.149  74.003  23.639  1.00  0.00    -0.278 N 
ATOM    664  C6    C A  27       5.068  73.176  23.770  1.00  0.00     0.102 A 
ATOM    665  C2    C A  27       7.408  73.592  24.080  1.00  0.00     0.352 A 
ATOM    666  O2    C A  27       8.372  74.357  23.946  1.00  0.00    -0.244 OA
ATOM    667  N3    C A  27       7.547  72.369  24.639  1.00  0.00    -0.177 NA
ATOM    668  C4    C A  27       6.487  71.571  24.769  1.00  0.00     0.128 A 
ATOM    669  N4    C A  27       6.672  70.378  25.331  1.00  0.00    -0.384 N 
ATOM    670  H41   C A  27       5.896  69.742  25.449  1.00  0.00     0.157 HD
ATOM    671  H42   C A  27       7.595  70.113  25.645  1.00  0.00     0.157 HD
ATOM    672  C5    C A  27       5.189  71.963  24.326  1.00  0.00     0.067 A 
ATOM    673  C2'   C A  27       6.508  75.406  21.590  1.00  0.00     0.199 C 
ATOM    674  O2'   C A  27       7.043  76.693  21.350  1.00  0.00    -0.388 OA
ATOM    675 'HO2   C A  27       6.674  76.995  20.519  1.00  0.00     0.210 HD
ATOM    676  C3'   C A  27       5.211  75.199  20.821  1.00  0.00     0.198 C 
ATOM    677  O3'   C A  27       5.280  75.703  19.489  1.00  0.00    -0.279 OA
ATOM    678  P     C A  28       5.821  74.759  18.304  1.00  0.00     0.408 P 
ATOM    679  OP1   C A  28       5.472  75.416  17.019  1.00  0.00    -0.624 OA
ATOM    680  OP2   C A  28       5.368  73.367  18.563  1.00  0.00    -0.624 OA
ATOM    681  O5'   C A  28       7.406  74.795  18.471  1.00  0.00    -0.287 OA
ATOM    682  C5'   C A  28       8.148  75.985  18.202  1.00  0.00     0.216 C 
ATOM    683  C4'   C A  28       9.629  75.682  18.178  1.00  0.00     0.180 C 
ATOM    684  O4'   C A  28      10.093  75.488  19.544  1.00  0.00    -0.353 OA
ATOM    685  C1'   C A  28      10.966  74.372  19.601  1.00  0.00     0.264 C 
ATOM    686  N1    C A  28      10.289  73.290  20.335  1.00  0.00    -0.278 N 
ATOM    687  C6    C A  28       8.925  73.234  20.391  1.00  0.00     0.102 A 
ATOM    688  C2    C A  28      11.061  72.317  20.973  1.00  0.00     0.352 A 
ATOM    689  O2    C A  28      12.296  72.386  20.903  1.00  0.00    -0.244 OA
ATOM    690  N3    C A  28      10.442  71.322  21.650  1.00  0.00    -0.177 NA
ATOM    691  C4    C A  28       9.110  71.280  21.702  1.00  0.00     0.128 A 
ATOM    692  N4    C A  28       8.544  70.284  22.384  1.00  0.00    -0.384 N 
ATOM    693  H41   C A  28       7.540  70.215  22.449  1.00  0.00     0.157 HD
ATOM    694  H42   C A  28       9.128  69.596  22.840  1.00  0.00     0.157 HD
ATOM    695  C5    C A  28       8.298  72.255  21.058  1.00  0.00     0.067 A 
ATOM    696  C2'   C A  28      11.314  74.012  18.159  1.00  0.00     0.199 C 
ATOM    697  O2'   C A  28      12.398  74.820  17.735  1.00  0.00    -0.388 OA
ATOM    698 'HO2   C A  28      12.227  75.052  16.821  1.00  0.00     0.210 HD
ATOM    699  C3'   C A  28      10.023  74.401  17.452  1.00  0.00     0.198 C 
ATOM    700  O3'   C A  28      10.208  74.622  16.056  1.00  0.00    -0.279 OA
ATOM    701  P     C A  29       9.777  73.483  15.004  1.00  0.00     0.408 P 
ATOM    702  OP1   C A  29       9.805  74.093  13.652  1.00  0.00    -0.624 OA
ATOM    703  OP2   C A  29       8.534  72.834  15.492  1.00  0.00    -0.624 OA
ATOM    704  O5'   C A  29      10.957  72.414  15.093  1.00  0.00    -0.287 OA
ATOM    705  C5'   C A  29      12.294  72.766  14.743  1.00  0.00     0.216 C 
ATOM    706  C4'   C A  29      13.259  71.715  15.240  1.00  0.00     0.180 C 
ATOM    707  O4'   C A  29      13.207  71.668  16.692  1.00  0.00    -0.353 OA
ATOM    708  C1'   C A  29      13.368  70.328  17.130  1.00  0.00     0.264 C 
ATOM    709  N1    C A  29      12.149  69.920  17.848  1.00  0.00    -0.278 N 
ATOM    710  C6    C A  29      10.961  70.562  17.637  1.00  0.00     0.102 A 
ATOM    711  C2    C A  29      12.224  68.856  18.750  1.00  0.00     0.352 A 
ATOM    712  O2    C A  29      13.314  68.292  18.926  1.00  0.00    -0.244 OA
ATOM    713  N3    C A  29      11.110  68.467  19.408  1.00  0.00    -0.177 NA
ATOM    714  C4    C A  29       9.956  69.101  19.197  1.00  0.00     0.128 A 
ATOM    715  N4    C A  29       8.887  68.681  19.871  1.00  0.00    -0.384 N 
ATOM    716  H41   C A  29       7.990  69.128  19.744  1.00  0.00     0.157 HD
ATOM    717  H42   C A  29       8.980  67.905  20.514  1.00  0.00     0.157 HD
ATOM    718  C5    C A  29       9.849  70.191  18.286  1.00  0.00     0.067 A 
ATOM    719  C2'   C A  29      13.658  69.475  15.895  1.00  0.00     0.199 C 
ATOM    720  O2'   C A  29      15.057  69.442  15.684  1.00  0.00    -0.388 OA
ATOM    721 'HO2   C A  29      15.204  69.672  14.766  1.00  0.00     0.210 HD
ATOM    722  C3'   C A  29      12.956  70.286  14.813  1.00  0.00     0.198 C 
ATOM    723  O3'   C A  29      13.454  70.002  13.509  1.00  0.00    -0.279 OA
ATOM    724  P     C A  30      12.769  68.843  12.629  1.00  0.00     0.408 P 
ATOM    725  OP1   C A  30      13.469  68.807  11.319  1.00  0.00    -0.624 OA
ATOM    726  OP2   C A  30      11.296  69.028  12.670  1.00  0.00    -0.624 OA
ATOM    727  O5'   C A  30      13.119  67.502  13.417  1.00  0.00    -0.287 OA
ATOM    728  C5'   C A  30      14.469  67.064  13.558  1.00  0.00     0.216 C 
ATOM    729  C4'   C A  30      14.516  65.743  14.291  1.00  0.00     0.180 C 
ATOM    730  O4'   C A  30      14.178  65.962  15.687  1.00  0.00    -0.353 OA
ATOM    731  C1'   C A  30      13.463  64.844  16.185  1.00  0.00     0.264 C 
ATOM    732  N1    C A  30      12.144  65.305  16.652  1.00  0.00    -0.278 N 
ATOM    733  C6    C A  30      11.560  66.419  16.118  1.00  0.00     0.102 A 
ATOM    734  C2    C A  30      11.498  64.582  17.657  1.00  0.00     0.352 A 
ATOM    735  O2    C A  30      12.051  63.576  18.125  1.00  0.00    -0.244 OA
ATOM    736  N3    C A  30      10.288  64.995  18.094  1.00  0.00    -0.177 NA
ATOM    737  C4    C A  30       9.726  66.085  17.569  1.00  0.00     0.128 A 
ATOM    738  N4    C A  30       8.534  66.454  18.033  1.00  0.00    -0.384 N 
ATOM    739  H41   C A  30       8.073  67.272  17.665  1.00  0.00     0.157 HD
ATOM    740  H42   C A  30       8.094  65.909  18.763  1.00  0.00     0.157 HD
ATOM    741  C5    C A  30      10.364  66.843  16.545  1.00  0.00     0.067 A 
ATOM    742  C2'   C A  30      13.385  63.809  15.062  1.00  0.00     0.199 C 
ATOM    743  O2'   C A  30      14.489  62.932  15.179  1.00  0.00    -0.388 OA
ATOM    744 'HO2   C A  30      15.068  63.118  14.440  1.00  0.00     0.210 HD
ATOM    745  C3'   C A  30      13.514  64.696  13.830  1.00  0.00     0.198 C 
ATOM    746  O3'   C A  30      13.983  63.980  12.691  1.00  0.00    -0.279 OA
ATOM    747  P     C A  31      12.935  63.236  11.725  1.00  0.00     0.408 P 
ATOM    748  OP1   C A  31      13.707  62.639  10.605  1.00  0.00    -0.624 OA
ATOM    749  OP2   C A  31      11.818  64.169  11.431  1.00  0.00    -0.624 OA
ATOM    750  O5'   C A  31      12.362  62.047  12.620  1.00  0.00    -0.287 OA
ATOM    751  C5'   C A  31      13.227  61.047  13.154  1.00  0.00     0.216 C 
ATOM    752  C4'   C A  31      12.436  60.063  13.985  1.00  0.00     0.180 C 
ATOM    753  O4'   C A  31      12.039  60.703  15.226  1.00  0.00    -0.353 OA
ATOM    754  C1'   C A  31      10.784  60.195  15.641  1.00  0.00     0.264 C 
ATOM    755  N1    C A  31       9.858  61.327  15.805  1.00  0.00    -0.278 N 
ATOM    756  C6    C A  31       9.946  62.428  14.999  1.00  0.00     0.102 A 
ATOM    757  C2    C A  31       8.879  61.259  16.801  1.00  0.00     0.352 A 
ATOM    758  O2    C A  31       8.823  60.251  17.521  1.00  0.00    -0.244 OA
ATOM    759  N3    C A  31       8.021  62.290  16.955  1.00  0.00    -0.177 NA
ATOM    760  C4    C A  31       8.116  63.361  16.166  1.00  0.00     0.128 A 
ATOM    761  N4    C A  31       7.248  64.352  16.357  1.00  0.00    -0.384 N 
ATOM    762  H41   C A  31       7.284  65.180  15.781  1.00  0.00     0.157 HD
ATOM    763  H42   C A  31       6.552  64.271  17.085  1.00  0.00     0.157 HD
ATOM    764  C5    C A  31       9.104  63.459  15.144  1.00  0.00     0.067 A 
ATOM    765  C2'   C A  31      10.321  59.171  14.602  1.00  0.00     0.198 C 
ATOM    766  O2'   C A  31      10.700  57.879  15.041  1.00  0.00    -0.388 OA
ATOM    767 'HO2   C A  31      11.005  57.400  14.270  1.00  0.00     0.210 HD
ATOM    768  C3'   C A  31      11.124  59.593  13.375  1.00  0.00     0.182 C 
ATOM    769  O3'   C A  31      11.313  58.517  12.449  1.00  0.00    -0.390 OA
ATOM    770 'HO3   C A  31      11.964  58.808  11.805  1.00  0.00     0.210 HD
ENDROOT
TORSDOF 244
ENDMDL
MODEL 4
REMARK VINA RESULT:     -14.4      7.387     30.056
REMARK  0 active torsions:
REMARK  status: ('A' for Active; 'I' for Inactive)
REMARK       I    between atoms: O5'_2  and  C5'_3 
REMARK       I    between atoms: C5'_3  and  C4'_4 
REMARK       I    between atoms: C1'_6  and  N9_7 
REMARK       I    between atoms: C2_10  and  N2_11 
REMARK       I    between atoms: C2'_21  and  O2'_22 
REMARK       I    between atoms: C3'_24  and  O3'_25 
REMARK       I    between atoms: O3'_25  and  P_26 
REMARK       I    between atoms: P_26  and  O5'_29 
REMARK       I    between atoms: O5'_29  and  C5'_30 
REMARK       I    between atoms: C5'_30  and  C4'_31 
REMARK       I    between atoms: C1'_33  and  N9_34 
REMARK       I    between atoms: C2_37  and  N2_38 
REMARK       I    between atoms: C2'_48  and  O2'_49 
REMARK       I    between atoms: C3'_51  and  O3'_52 
REMARK       I    between atoms: O3'_52  and  P_53 
REMARK       I    between atoms: P_53  and  O5'_56 
REMARK       I    between atoms: O5'_56  and  C5'_57 
REMARK       I    between atoms: C5'_57  and  C4'_58 
REMARK       I    between atoms: C1'_60  and  N9_61 
REMARK       I    between atoms: C2_64  and  N2_65 
REMARK       I    between atoms: C2'_75  and  O2'_76 
REMARK       I    between atoms: C3'_78  and  O3'_79 
REMARK       I    between atoms: O3'_79  and  P_80 
REMARK       I    between atoms: P_80  and  O5'_83 
REMARK       I    between atoms: O5'_83  and  C5'_84 
REMARK       I    between atoms: C5'_84  and  C4'_85 
REMARK       I    between atoms: C1'_87  and  N9_88 
REMARK       I    between atoms: C2_91  and  N2_92 
REMARK       I    between atoms: C2'_102  and  O2'_103 
REMARK       I    between atoms: C3'_105  and  O3'_106 
REMARK       I    between atoms: O3'_106  and  P_107 
REMARK       I    between atoms: P_107  and  O5'_110 
REMARK       I    between atoms: O5'_110  and  C5'_111 
REMARK       I    between atoms: C5'_111  and  C4'_112 
REMARK       I    between atoms: C1'_114  and  N9_115 
REMARK       I    between atoms: C2_118  and  N2_119 
REMARK       I    between atoms: C2'_129  and  O2'_130 
REMARK       I    between atoms: C3'_132  and  O3'_133 
REMARK       I    between atoms: O3'_133  and  P_134 
REMARK       I    between atoms: P_134  and  O5'_137 
REMARK       I    between atoms: O5'_137  and  C5'_138 
REMARK       I    between atoms: C5'_138  and  C4'_139 
REMARK       I    between atoms: C1'_141  and  N9_142 
REMARK       I    between atoms: C2_145  and  N2_146 
REMARK       I    between atoms: C2'_156  and  O2'_157 
REMARK       I    between atoms: C3'_159  and  O3'_160 
REMARK       I    between atoms: O3'_160  and  P_161 
REMARK       I    between atoms: P_161  and  O5'_164 
REMARK       I    between atoms: O5'_164  and  C5'_165 
REMARK       I    between atoms: C5'_165  and  C4'_166 
REMARK       I    between atoms: C1'_168  and  N9_169 
REMARK       I    between atoms: C2_172  and  N2_173 
REMARK       I    between atoms: C2'_183  and  O2'_184 
REMARK       I    between atoms: C3'_186  and  O3'_187 
REMARK       I    between atoms: O3'_187  and  P_188 
REMARK       I    between atoms: P_188  and  O5'_191 
REMARK       I    between atoms: O5'_191  and  C5'_192 
REMARK       I    between atoms: C5'_192  and  C4'_193 
REMARK       I    between atoms: C1'_195  and  N1_196 
REMARK       I    between atoms: C2'_205  and  O2'_206 
REMARK       I    between atoms: C3'_208  and  O3'_209 
REMARK       I    between atoms: O3'_209  and  P_210 
REMARK       I    between atoms: P_210  and  O5'_213 
REMARK       I    between atoms: O5'_213  and  C5'_214 
REMARK       I    between atoms: C5'_214  and  C4'_215 
REMARK       I    between atoms: C1'_217  and  N9_218 
REMARK       I    between atoms: C6_223  and  N6_224 
REMARK       I    between atoms: C2'_230  and  O2'_231 
REMARK       I    between atoms: C3'_233  and  O3'_234 
REMARK       I    between atoms: O3'_234  and  P_235 
REMARK       I    between atoms: P_235  and  O5'_238 
REMARK       I    between atoms: O5'_238  and  C5'_239 
REMARK       I    between atoms: C5'_239  and  C4'_240 
REMARK       I    between atoms: C1'_242  and  N9_243 
REMARK       I    between atoms: C2_246  and  N2_247 
REMARK       I    between atoms: C2'_257  and  O2'_258 
REMARK       I    between atoms: C3'_260  and  O3'_261 
REMARK       I    between atoms: O3'_261  and  P_262 
REMARK       I    between atoms: P_262  and  O5'_265 
REMARK       I    between atoms: O5'_265  and  C5'_266 
REMARK       I    between atoms: C5'_266  and  C4'_267 
REMARK       I    between atoms: C1'_269  and  N1_270 
REMARK       I    between atoms: C4_275  and  N4_276 
REMARK       I    between atoms: C2'_280  and  O2'_281 
REMARK       I    between atoms: C3'_283  and  O3'_284 
REMARK       I    between atoms: O3'_284  and  P_285 
REMARK       I    between atoms: P_285  and  O5'_288 
REMARK       I    between atoms: O5'_288  and  C5'_289 
REMARK       I    between atoms: C5'_289  and  C4'_290 
REMARK       I    between atoms: C1'_292  and  N1_293 
REMARK       I    between atoms: C4_298  and  N4_299 
REMARK       I    between atoms: C2'_303  and  O2'_304 
REMARK       I    between atoms: C3'_306  and  O3'_307 
REMARK       I    between atoms: O3'_307  and  P_308 
REMARK       I    between atoms: P_308  and  O5'_311 
REMARK       I    between atoms: O5'_311  and  C5'_312 
REMARK       I    between atoms: C5'_312  and  C4'_313 
REMARK       I    between atoms: C1'_315  and  N9_316 
REMARK       I    between atoms: C6_321  and  N6_322 
REMARK       I    between atoms: C2'_328  and  O2'_329 
REMARK       I    between atoms: C3'_331  and  O3'_332 
REMARK       I    between atoms: O3'_332  and  P_333 
REMARK       I    between atoms: P_333  and  O5'_336 
REMARK       I    between atoms: O5'_336  and  C5'_337 
REMARK       I    between atoms: C5'_337  and  C4'_338 
REMARK       I    between atoms: C1'_340  and  N9_341 
REMARK       I    between atoms: C6_346  and  N6_347 
REMARK       I    between atoms: C2'_353  and  O2'_354 
REMARK       I    between atoms: C3'_356  and  O3'_357 
REMARK       I    between atoms: O3'_357  and  P_358 
REMARK       I    between atoms: P_358  and  O5'_361 
REMARK       I    between atoms: O5'_361  and  C5'_362 
REMARK       I    between atoms: C5'_362  and  C4'_363 
REMARK       I    between atoms: C1'_365  and  N9_366 
REMARK       I    between atoms: C2_369  and  N2_370 
REMARK       I    between atoms: C2'_380  and  O2'_381 
REMARK       I    between atoms: C3'_383  and  O3'_384 
REMARK       I    between atoms: O3'_384  and  P_385 
REMARK       I    between atoms: P_385  and  O5'_388 
REMARK       I    between atoms: O5'_388  and  C5'_389 
REMARK       I    between atoms: C5'_389  and  C4'_390 
REMARK       I    between atoms: C1'_392  and  N1_393 
REMARK       I    between atoms: C2'_402  and  O2'_403 
REMARK       I    between atoms: C3'_405  and  O3'_406 
REMARK       I    between atoms: O3'_406  and  P_407 
REMARK       I    between atoms: P_407  and  O5'_410 
REMARK       I    between atoms: O5'_410  and  C5'_411 
REMARK       I    between atoms: C5'_411  and  C4'_412 
REMARK       I    between atoms: C1'_414  and  N9_415 
REMARK       I    between atoms: C2_418  and  N2_419 
REMARK       I    between atoms: C2'_429  and  O2'_430 
REMARK       I    between atoms: C3'_432  and  O3'_433 
REMARK       I    between atoms: O3'_433  and  P_434 
REMARK       I    between atoms: P_434  and  O5'_437 
REMARK       I    between atoms: O5'_437  and  C5'_438 
REMARK       I    between atoms: C5'_438  and  C4'_439 
REMARK       I    between atoms: C1'_441  and  N9_442 
REMARK       I    between atoms: C2_445  and  N2_446 
REMARK       I    between atoms: C2'_456  and  O2'_457 
REMARK       I    between atoms: C3'_459  and  O3'_460 
REMARK       I    between atoms: O3'_460  and  P_461 
REMARK       I    between atoms: P_461  and  O5'_464 
REMARK       I    between atoms: O5'_464  and  C5'_465 
REMARK       I    between atoms: C5'_465  and  C4'_466 
REMARK       I    between atoms: C1'_468  and  N1_469 
REMARK       I    between atoms: C4_474  and  N4_475 
REMARK       I    between atoms: C2'_479  and  O2'_480 
REMARK       I    between atoms: C3'_482  and  O3'_483 
REMARK       I    between atoms: O3'_483  and  P_484 
REMARK       I    between atoms: P_484  and  O5'_487 
REMARK       I    between atoms: O5'_487  and  C5'_488 
REMARK       I    between atoms: C5'_488  and  C4'_489 
REMARK       I    between atoms: C1'_491  and  N1_492 
REMARK       I    between atoms: C4_497  and  N4_498 
REMARK       I    between atoms: C2'_502  and  O2'_503 
REMARK       I    between atoms: C3'_505  and  O3'_506 
REMARK       I    between atoms: O3'_506  and  P_507 
REMARK       I    between atoms: P_507  and  O5'_510 
REMARK       I    between atoms: O5'_510  and  C5'_511 
REMARK       I    between atoms: C5'_511  and  C4'_512 
REMARK       I    between atoms: C1'_514  and  N9_515 
REMARK       I    between atoms: C6_520  and  N6_521 
REMARK       I    between atoms: C2'_527  and  O2'_528 
REMARK       I    between atoms: C3'_530  and  O3'_531 
REMARK       I    between atoms: O3'_531  and  P_532 
REMARK       I    between atoms: P_532  and  O5'_535 
REMARK       I    between atoms: O5'_535  and  C5'_536 
REMARK       I    between atoms: C5'_536  and  C4'_537 
REMARK       I    between atoms: C1'_539  and  N9_540 
REMARK       I    between atoms: C6_545  and  N6_546 
REMARK       I    between atoms: C2'_552  and  O2'_553 
REMARK       I    between atoms: C3'_555  and  O3'_556 
REMARK       I    between atoms: O3'_556  and  P_557 
REMARK       I    between atoms: P_557  and  O5'_560 
REMARK       I    between atoms: O5'_560  and  C5'_561 
REMARK       I    between atoms: C5'_561  and  C4'_562 
REMARK       I    between atoms: C1'_564  and  N9_565 
REMARK       I    between atoms: C6_570  and  N6_571 
REMARK       I    between atoms: C2'_577  and  O2'_578 
REMARK       I    between atoms: C3'_580  and  O3'_581 
REMARK       I    between atoms: O3'_581  and  P_582 
REMARK       I    between atoms: P_582  and  O5'_585 
REMARK       I    between atoms: O5'_585  and  C5'_586 
REMARK       I    between atoms: C5'_586  and  C4'_587 
REMARK       I    between atoms: C1'_589  and  N9_590 
REMARK       I    between atoms: C2_593  and  N2_594 
REMARK       I    between atoms: C2'_604  and  O2'_605 
REMARK       I    between atoms: C3'_607  and  O3'_608 
REMARK       I    between atoms: O3'_608  and  P_609 
REMARK       I    between atoms: P_609  and  O5'_612 
REMARK       I    between atoms: O5'_612  and  C5'_613 
REMARK       I    between atoms: C5'_613  and  C4'_614 
REMARK       I    between atoms: C1'_616  and  N1_617 
REMARK       I    between atoms: C4_622  and  N4_623 
REMARK       I    between atoms: C2'_627  and  O2'_628 
REMARK       I    between atoms: C3'_630  and  O3'_631 
REMARK       I    between atoms: O3'_631  and  P_632 
REMARK       I    between atoms: P_632  and  O5'_635 
REMARK       I    between atoms: O5'_635  and  C5'_636 
REMARK       I    between atoms: C5'_636  and  C4'_637 
REMARK       I    between atoms: C1'_639  and  N1_640 
REMARK       I    between atoms: C4_645  and  N4_646 
REMARK       I    between atoms: C2'_650  and  O2'_651 
REMARK       I    between atoms: C3'_653  and  O3'_654 
REMARK       I    between atoms: O3'_654  and  P_655 
REMARK       I    between atoms: P_655  and  O5'_658 
REMARK       I    between atoms: O5'_658  and  C5'_659 
REMARK       I    between atoms: C5'_659  and  C4'_660 
REMARK       I    between atoms: C1'_662  and  N1_663 
REMARK       I    between atoms: C4_668  and  N4_669 
REMARK       I    between atoms: C2'_673  and  O2'_674 
REMARK       I    between atoms: C3'_676  and  O3'_677 
REMARK       I    between atoms: O3'_677  and  P_678 
REMARK       I    between atoms: P_678  and  O5'_681 
REMARK       I    between atoms: O5'_681  and  C5'_682 
REMARK       I    between atoms: C5'_682  and  C4'_683 
REMARK       I    between atoms: C1'_685  and  N1_686 
REMARK       I    between atoms: C4_691  and  N4_692 
REMARK       I    between atoms: C2'_696  and  O2'_697 
REMARK       I    between atoms: C3'_699  and  O3'_700 
REMARK       I    between atoms: O3'_700  and  P_701 
REMARK       I    between atoms: P_701  and  O5'_704 
REMARK       I    between atoms: O5'_704  and  C5'_705 
REMARK       I    between atoms: C5'_705  and  C4'_706 
REMARK       I    between atoms: C1'_708  and  N1_709 
REMARK       I    between atoms: C4_714  and  N4_715 
REMARK       I    between atoms: C2'_719  and  O2'_720 
REMARK       I    between atoms: C3'_722  and  O3'_723 
REMARK       I    between atoms: O3'_723  and  P_724 
REMARK       I    between atoms: P_724  and  O5'_727 
REMARK       I    between atoms: O5'_727  and  C5'_728 
REMARK       I    between atoms: C5'_728  and  C4'_729 
REMARK       I    between atoms: C1'_731  and  N1_732 
REMARK       I    between atoms: C4_737  and  N4_738 
REMARK       I    between atoms: C2'_742  and  O2'_743 
REMARK       I    between atoms: C3'_745  and  O3'_746 
REMARK       I    between atoms: O3'_746  and  P_747 
REMARK       I    between atoms: P_747  and  O5'_750 
REMARK       I    between atoms: O5'_750  and  C5'_751 
REMARK       I    between atoms: C5'_751  and  C4'_752 
REMARK       I    between atoms: C1'_754  and  N1_755 
REMARK       I    between atoms: C4_760  and  N4_761 
REMARK       I    between atoms: C2'_765  and  O2'_766 
REMARK       I    between atoms: C3'_768  and  O3'_769 
ROOT
ATOM      1 'HO5   G A   1      17.274  75.620  56.516  1.00  0.00     0.209 HD
ATOM      2  O5'   G A   1      17.999  75.434  55.916  1.00  0.00    -0.398 OA
ATOM      3  C5'   G A   1      18.415  74.085  56.158  1.00  0.00     0.198 C 
ATOM      4  C4'   G A   1      17.425  73.366  57.045  1.00  0.00     0.180 C 
ATOM      5  O4'   G A   1      17.571  73.861  58.405  1.00  0.00    -0.353 OA
ATOM      6  C1'   G A   1      16.294  74.104  58.967  1.00  0.00     0.262 C 
ATOM      7  N9    G A   1      16.120  75.547  59.106  1.00  0.00    -0.293 N 
ATOM      8  C4    G A   1      15.049  76.192  59.678  1.00  0.00     0.187 A 
ATOM      9  N3    G A   1      13.962  75.600  60.215  1.00  0.00    -0.044 NA
ATOM     10  C2    G A   1      13.103  76.487  60.688  1.00  0.00     0.703 A 
ATOM     11  N2    G A   1      11.968  76.072  61.255  1.00  0.00    -0.233 N 
ATOM     12  H21   G A   1      11.777  75.083  61.316  1.00  0.00     0.174 HD
ATOM     13  H22   G A   1      11.304  76.743  61.615  1.00  0.00     0.174 HD
ATOM     14  N1    G A   1      13.293  77.843  60.639  1.00  0.00    -0.153 N 
ATOM     15  H1    G A   1      12.575  78.433  61.031  1.00  0.00     0.187 HD
ATOM     16  C6    G A   1      14.404  78.475  60.091  1.00  0.00     0.292 A 
ATOM     17  O6    G A   1      14.475  79.709  60.100  1.00  0.00    -0.265 OA
ATOM     18  C5    G A   1      15.336  77.536  59.577  1.00  0.00     0.173 A 
ATOM     19  N7    G A   1      16.562  77.735  58.955  1.00  0.00    -0.234 NA
ATOM     20  C8    G A   1      16.988  76.529  58.695  1.00  0.00     0.214 A 
ATOM     21  C2'   G A   1      15.268  73.443  58.048  1.00  0.00     0.199 C 
ATOM     22  O2'   G A   1      15.137  72.083  58.419  1.00  0.00    -0.388 OA
ATOM     23 'HO2   G A   1      14.228  71.835  58.249  1.00  0.00     0.210 HD
ATOM     24  C3'   G A   1      15.958  73.588  56.696  1.00  0.00     0.198 C 
ATOM     25  O3'   G A   1      15.499  72.635  55.740  1.00  0.00    -0.279 OA
ATOM     26  P     G A   2      14.463  73.084  54.594  1.00  0.00     0.408 P 
ATOM     27  OP1   G A   2      14.330  71.946  53.648  1.00  0.00    -0.624 OA
ATOM     28  OP2   G A   2      14.875  74.416  54.083  1.00  0.00    -0.624 OA
ATOM     29  O5'   G A   2      13.081  73.252  55.367  1.00  0.00    -0.287 OA
ATOM     30  C5'   G A   2      12.375  72.117  55.865  1.00  0.00     0.216 C 
ATOM     31  C4'   G A   2      11.249  72.558  56.770  1.00  0.00     0.180 C 
ATOM     32  O4'   G A   2      11.785  73.409  57.818  1.00  0.00    -0.353 OA
ATOM     33  C1'   G A   2      10.833  74.405  58.153  1.00  0.00     0.262 C 
ATOM     34  N9    G A   2      11.434  75.717  57.928  1.00  0.00    -0.293 N 
ATOM     35  C4    G A   2      10.894  76.930  58.279  1.00  0.00     0.187 A 
ATOM     36  N3    G A   2       9.705  77.122  58.886  1.00  0.00    -0.044 NA
ATOM     37  C2    G A   2       9.459  78.401  59.096  1.00  0.00     0.703 A 
ATOM     38  N2    G A   2       8.318  78.769  59.683  1.00  0.00    -0.233 N 
ATOM     39  H21   G A   2       7.656  78.059  59.960  1.00  0.00     0.174 HD
ATOM     40  H22   G A   2       8.115  79.745  59.843  1.00  0.00     0.174 HD
ATOM     41  N1    G A   2      10.313  79.415  58.744  1.00  0.00    -0.153 N 
ATOM     42  H1    G A   2      10.030  80.360  58.953  1.00  0.00     0.187 HD
ATOM     43  C6    G A   2      11.543  79.244  58.120  1.00  0.00     0.292 A 
ATOM     44  O6    G A   2      12.237  80.231  57.849  1.00  0.00    -0.265 OA
ATOM     45  C5    G A   2      11.820  77.871  57.883  1.00  0.00     0.173 A 
ATOM     46  N7    G A   2      12.918  77.264  57.289  1.00  0.00    -0.234 NA
ATOM     47  C8    G A   2      12.643  75.989  57.335  1.00  0.00     0.214 A 
ATOM     48  C2'   G A   2       9.584  74.154  57.308  1.00  0.00     0.199 C 
ATOM     49  O2'   G A   2       8.703  73.322  58.042  1.00  0.00    -0.388 OA
ATOM     50 'HO2   G A   2       8.303  72.724  57.411  1.00  0.00     0.210 HD
ATOM     51  C3'   G A   2      10.177  73.416  56.116  1.00  0.00     0.198 C 
ATOM     52  O3'   G A   2       9.210  72.628  55.427  1.00  0.00    -0.279 OA
ATOM     53  P     G A   3       8.409  73.256  54.179  1.00  0.00     0.408 P 
ATOM     54  OP1   G A   3       7.455  72.223  53.701  1.00  0.00    -0.624 OA
ATOM     55  OP2   G A   3       9.397  73.835  53.234  1.00  0.00    -0.624 OA
ATOM     56  O5'   G A   3       7.570  74.450  54.820  1.00  0.00    -0.287 OA
ATOM     57  C5'   G A   3       6.571  74.200  55.807  1.00  0.00     0.216 C 
ATOM     58  C4'   G A   3       5.601  75.359  55.878  1.00  0.00     0.180 C 
ATOM     59  O4'   G A   3       6.063  76.305  56.882  1.00  0.00    -0.353 OA
ATOM     60  C1'   G A   3       5.813  77.629  56.440  1.00  0.00     0.262 C 
ATOM     61  N9    G A   3       7.094  78.303  56.250  1.00  0.00    -0.293 N 
ATOM     62  C4    G A   3       7.311  79.660  56.249  1.00  0.00     0.187 A 
ATOM     63  N3    G A   3       6.373  80.614  56.428  1.00  0.00    -0.044 NA
ATOM     64  C2    G A   3       6.889  81.828  56.371  1.00  0.00     0.703 A 
ATOM     65  N2    G A   3       6.100  82.893  56.529  1.00  0.00    -0.233 N 
ATOM     66  H21   G A   3       5.112  82.757  56.690  1.00  0.00     0.174 HD
ATOM     67  H22   G A   3       6.487  83.825  56.489  1.00  0.00     0.174 HD
ATOM     68  N1    G A   3       8.218  82.090  56.157  1.00  0.00    -0.153 N 
ATOM     69  H1    G A   3       8.506  83.054  56.131  1.00  0.00     0.187 HD
ATOM     70  C6    G A   3       9.202  81.126  55.972  1.00  0.00     0.292 A 
ATOM     71  O6    G A   3      10.374  81.473  55.789  1.00  0.00    -0.265 OA
ATOM     72  C5    G A   3       8.664  79.813  56.029  1.00  0.00     0.173 A 
ATOM     73  N7    G A   3       9.285  78.579  55.896  1.00  0.00    -0.234 NA
ATOM     74  C8    G A   3       8.316  77.717  56.034  1.00  0.00     0.214 A 
ATOM     75  C2'   G A   3       4.985  77.528  55.160  1.00  0.00     0.199 C 
ATOM     76  O2'   G A   3       3.613  77.471  55.507  1.00  0.00    -0.388 OA
ATOM     77 'HO2   G A   3       3.226  76.779  54.970  1.00  0.00     0.210 HD
ATOM     78  C3'   G A   3       5.472  76.194  54.612  1.00  0.00     0.198 C 
ATOM     79  O3'   G A   3       4.556  75.615  53.684  1.00  0.00    -0.279 OA
ATOM     80  P     G A   4       4.673  75.972  52.120  1.00  0.00     0.408 P 
ATOM     81  OP1   G A   4       3.630  75.187  51.411  1.00  0.00    -0.624 OA
ATOM     82  OP2   G A   4       6.093  75.842  51.711  1.00  0.00    -0.624 OA
ATOM     83  O5'   G A   4       4.269  77.512  52.046  1.00  0.00    -0.287 OA
ATOM     84  C5'   G A   4       2.963  77.948  52.417  1.00  0.00     0.216 C 
ATOM     85  C4'   G A   4       2.850  79.447  52.273  1.00  0.00     0.180 C 
ATOM     86  O4'   G A   4       3.703  80.088  53.256  1.00  0.00    -0.353 OA
ATOM     87  C1'   G A   4       4.204  81.303  52.727  1.00  0.00     0.262 C 
ATOM     88  N9    G A   4       5.662  81.262  52.769  1.00  0.00    -0.293 N 
ATOM     89  C4    G A   4       6.508  82.341  52.717  1.00  0.00     0.187 A 
ATOM     90  N3    G A   4       6.138  83.634  52.611  1.00  0.00    -0.044 NA
ATOM     91  C2    G A   4       7.179  84.444  52.583  1.00  0.00     0.703 A 
ATOM     92  N2    G A   4       6.991  85.761  52.473  1.00  0.00    -0.233 N 
ATOM     93  H21   G A   4       6.048  86.120  52.414  1.00  0.00     0.174 HD
ATOM     94  H22   G A   4       7.780  86.392  52.447  1.00  0.00     0.174 HD
ATOM     95  N1    G A   4       8.482  84.023  52.657  1.00  0.00    -0.153 N 
ATOM     96  H1    G A   4       9.203  84.727  52.629  1.00  0.00     0.187 HD
ATOM     97  C6    G A   4       8.889  82.700  52.769  1.00  0.00     0.292 A 
ATOM     98  O6    G A   4      10.093  82.431  52.832  1.00  0.00    -0.265 OA
ATOM     99  C5    G A   4       7.781  81.814  52.796  1.00  0.00     0.173 A 
ATOM    100  N7    G A   4       7.735  80.430  52.893  1.00  0.00    -0.234 NA
ATOM    101  C8    G A   4       6.461  80.149  52.871  1.00  0.00     0.214 A 
ATOM    102  C2'   G A   4       3.638  81.467  51.316  1.00  0.00     0.199 C 
ATOM    103  O2'   G A   4       2.453  82.238  51.391  1.00  0.00    -0.388 OA
ATOM    104 'HO2   G A   4       1.789  81.767  50.889  1.00  0.00     0.210 HD
ATOM    105  C3'   G A   4       3.331  80.020  50.949  1.00  0.00     0.198 C 
ATOM    106  O3'   G A   4       2.335  79.914  49.935  1.00  0.00    -0.279 OA
ATOM    107  P     G A   5       2.769  79.923  48.386  1.00  0.00     0.408 P 
ATOM    108  OP1   G A   5       1.524  79.965  47.579  1.00  0.00    -0.624 OA
ATOM    109  OP2   G A   5       3.748  78.827  48.167  1.00  0.00    -0.624 OA
ATOM    110  O5'   G A   5       3.525  81.314  48.204  1.00  0.00    -0.287 OA
ATOM    111  C5'   G A   5       2.825  82.552  48.312  1.00  0.00     0.216 C 
ATOM    112  C4'   G A   5       3.742  83.703  47.973  1.00  0.00     0.180 C 
ATOM    113  O4'   G A   5       4.738  83.841  49.016  1.00  0.00    -0.353 OA
ATOM    114  C1'   G A   5       5.927  84.377  48.464  1.00  0.00     0.262 C 
ATOM    115  N9    G A   5       7.046  83.536  48.879  1.00  0.00    -0.293 N 
ATOM    116  C4    G A   5       8.363  83.918  48.966  1.00  0.00     0.187 A 
ATOM    117  N3    G A   5       8.854  85.143  48.689  1.00  0.00    -0.044 NA
ATOM    118  C2    G A   5      10.161  85.202  48.862  1.00  0.00     0.703 A 
ATOM    119  N2    G A   5      10.811  86.345  48.631  1.00  0.00    -0.233 N 
ATOM    120  H21   G A   5      10.295  87.156  48.327  1.00  0.00     0.174 HD
ATOM    121  H22   G A   5      11.813  86.394  48.753  1.00  0.00     0.174 HD
ATOM    122  N1    G A   5      10.930  84.145  49.274  1.00  0.00    -0.153 N 
ATOM    123  H1    G A   5      11.922  84.296  49.373  1.00  0.00     0.187 HD
ATOM    124  C6    G A   5      10.449  82.874  49.569  1.00  0.00     0.292 A 
ATOM    125  O6    G A   5      11.233  81.991  49.937  1.00  0.00    -0.265 OA
ATOM    126  C5    G A   5       9.043  82.793  49.386  1.00  0.00     0.173 A 
ATOM    127  N7    G A   5       8.170  81.727  49.564  1.00  0.00    -0.234 NA
ATOM    128  C8    G A   5       7.001  82.215  49.253  1.00  0.00     0.214 A 
ATOM    129  C2'   G A   5       5.756  84.460  46.944  1.00  0.00     0.199 C 
ATOM    130  O2'   G A   5       5.444  85.798  46.603  1.00  0.00    -0.388 OA
ATOM    131 'HO2   G A   5       6.073  86.066  45.932  1.00  0.00     0.210 HD
ATOM    132  C3'   G A   5       4.565  83.532  46.705  1.00  0.00     0.198 C 
ATOM    133  O3'   G A   5       3.809  83.894  45.552  1.00  0.00    -0.279 OA
ATOM    134  P     G A   6       4.415  83.637  44.084  1.00  0.00     0.408 P 
ATOM    135  OP1   G A   6       3.354  83.988  43.105  1.00  0.00    -0.624 OA
ATOM    136  OP2   G A   6       5.020  82.281  44.053  1.00  0.00    -0.624 OA
ATOM    137  O5'   G A   6       5.578  84.720  43.951  1.00  0.00    -0.287 OA
ATOM    138  C5'   G A   6       6.879  84.354  43.492  1.00  0.00     0.216 C 
ATOM    139  C4'   G A   6       7.853  85.479  43.748  1.00  0.00     0.180 C 
ATOM    140  O4'   G A   6       8.253  85.440  45.146  1.00  0.00    -0.353 OA
ATOM    141  C1'   G A   6       9.645  85.675  45.253  1.00  0.00     0.262 C 
ATOM    142  N9    G A   6      10.286  84.449  45.722  1.00  0.00    -0.293 N 
ATOM    143  C4    G A   6      11.631  84.257  45.923  1.00  0.00     0.187 A 
ATOM    144  N3    G A   6      12.601  85.174  45.725  1.00  0.00    -0.044 NA
ATOM    145  C2    G A   6      13.798  84.692  46.002  1.00  0.00     0.703 A 
ATOM    146  N2    G A   6      14.876  85.468  45.859  1.00  0.00    -0.233 N 
ATOM    147  H21   G A   6      14.764  86.419  45.538  1.00  0.00     0.174 HD
ATOM    148  H22   G A   6      15.796  85.104  46.062  1.00  0.00     0.174 HD
ATOM    149  N1    G A   6      14.028  83.415  46.441  1.00  0.00    -0.153 N 
ATOM    150  H1    G A   6      14.984  83.150  46.623  1.00  0.00     0.187 HD
ATOM    151  C6    G A   6      13.049  82.453  46.655  1.00  0.00     0.292 A 
ATOM    152  O6    G A   6      13.369  81.328  47.057  1.00  0.00    -0.265 OA
ATOM    153  C5    G A   6      11.754  82.955  46.358  1.00  0.00     0.173 A 
ATOM    154  N7    G A   6      10.511  82.340  46.430  1.00  0.00    -0.234 NA
ATOM    155  C8    G A   6       9.674  83.262  46.044  1.00  0.00     0.214 A 
ATOM    156  C2'   G A   6      10.133  86.136  43.881  1.00  0.00     0.199 C 
ATOM    157  O2'   G A   6       9.968  87.539  43.790  1.00  0.00    -0.388 OA
ATOM    158 'HO2   G A   6       9.839  87.739  42.863  1.00  0.00     0.210 HD
ATOM    159  C3'   G A   6       9.159  85.403  42.966  1.00  0.00     0.198 C 
ATOM    160  O3'   G A   6       9.046  86.020  41.686  1.00  0.00    -0.279 OA
ATOM    161  P     G A   7       9.893  85.448  40.444  1.00  0.00     0.408 P 
ATOM    162  OP1   G A   7       9.504  86.237  39.246  1.00  0.00    -0.624 OA
ATOM    163  OP2   G A   7       9.758  83.969  40.423  1.00  0.00    -0.624 OA
ATOM    164  O5'   G A   7      11.403  85.808  40.805  1.00  0.00    -0.287 OA
ATOM    165  C5'   G A   7      11.844  87.164  40.857  1.00  0.00     0.216 C 
ATOM    166  C4'   G A   7      13.314  87.223  41.203  1.00  0.00     0.180 C 
ATOM    167  O4'   G A   7      13.524  86.583  42.488  1.00  0.00    -0.353 OA
ATOM    168  C1'   G A   7      14.780  85.928  42.494  1.00  0.00     0.262 C 
ATOM    169  N9    G A   7      14.561  84.515  42.790  1.00  0.00    -0.293 N 
ATOM    170  C4    G A   7      15.524  83.590  43.111  1.00  0.00     0.187 A 
ATOM    171  N3    G A   7      16.849  83.826  43.202  1.00  0.00    -0.044 NA
ATOM    172  C2    G A   7      17.521  82.739  43.532  1.00  0.00     0.703 A 
ATOM    173  N2    G A   7      18.848  82.796  43.666  1.00  0.00    -0.233 N 
ATOM    174  H21   G A   7      19.323  83.674  43.513  1.00  0.00     0.174 HD
ATOM    175  H22   G A   7      19.370  81.970  43.921  1.00  0.00     0.174 HD
ATOM    176  N1    G A   7      16.943  81.517  43.755  1.00  0.00    -0.153 N 
ATOM    177  H1    G A   7      17.550  80.751  44.003  1.00  0.00     0.187 HD
ATOM    178  C6    G A   7      15.582  81.247  43.668  1.00  0.00     0.292 A 
ATOM    179  O6    G A   7      15.167  80.104  43.890  1.00  0.00    -0.265 OA
ATOM    180  C5    G A   7      14.843  82.407  43.313  1.00  0.00     0.173 A 
ATOM    181  N7    G A   7      13.480  82.585  43.120  1.00  0.00    -0.234 NA
ATOM    182  C8    G A   7      13.361  83.847  42.811  1.00  0.00     0.214 A 
ATOM    183  C2'   G A   7      15.447  86.176  41.140  1.00  0.00     0.199 C 
ATOM    184  O2'   G A   7      16.292  87.306  41.256  1.00  0.00    -0.388 OA
ATOM    185 'HO2   G A   7      16.486  87.603  40.366  1.00  0.00     0.210 HD
ATOM    186  C3'   G A   7      14.242  86.478  40.256  1.00  0.00     0.198 C 
ATOM    187  O3'   G A   7      14.583  87.275  39.126  1.00  0.00    -0.279 OA
ATOM    188  P     U A   8      14.939  86.567  37.725  1.00  0.00     0.408 P 
ATOM    189  OP1   U A   8      15.343  87.637  36.779  1.00  0.00    -0.624 OA
ATOM    190  OP2   U A   8      13.828  85.650  37.365  1.00  0.00    -0.624 OA
ATOM    191  O5'   U A   8      16.225  85.685  38.054  1.00  0.00    -0.287 OA
ATOM    192  C5'   U A   8      17.510  86.285  38.208  1.00  0.00     0.216 C 
ATOM    193  C4'   U A   8      18.546  85.228  38.509  1.00  0.00     0.180 C 
ATOM    194  O4'   U A   8      18.211  84.587  39.771  1.00  0.00    -0.353 OA
ATOM    195  C1'   U A   8      18.438  83.193  39.676  1.00  0.00     0.264 C 
ATOM    196  N1    U A   8      17.146  82.502  39.803  1.00  0.00    -0.280 N 
ATOM    197  C6    U A   8      15.972  83.100  39.402  1.00  0.00     0.104 A 
ATOM    198  C2    U A   8      17.149  81.228  40.337  1.00  0.00     0.331 A 
ATOM    199  O2    U A   8      18.167  80.668  40.706  1.00  0.00    -0.246 OA
ATOM    200  N3    U A   8      15.917  80.633  40.425  1.00  0.00    -0.275 N 
ATOM    201  H3    U A   8      15.885  79.704  40.816  1.00  0.00     0.173 HD
ATOM    202  C4    U A   8      14.708  81.170  40.043  1.00  0.00     0.250 A 
ATOM    203  O4    U A   8      13.684  80.500  40.170  1.00  0.00    -0.268 OA
ATOM    204  C5    U A   8      14.788  82.490  39.504  1.00  0.00     0.092 A 
ATOM    205  C2'   U A   8      19.141  82.932  38.345  1.00  0.00     0.199 C 
ATOM    206  O2'   U A   8      20.539  83.029  38.542  1.00  0.00    -0.388 OA
ATOM    207 'HO2   U A   8      20.868  83.624  37.868  1.00  0.00     0.210 HD
ATOM    208  C3'   U A   8      18.620  84.089  37.502  1.00  0.00     0.198 C 
ATOM    209  O3'   U A   8      19.486  84.408  36.417  1.00  0.00    -0.279 OA
ATOM    210  P     A A   9      19.375  83.587  35.038  1.00  0.00     0.408 P 
ATOM    211  OP1   A A   9      20.231  84.277  34.041  1.00  0.00    -0.624 OA
ATOM    212  OP2   A A   9      17.938  83.363  34.741  1.00  0.00    -0.624 OA
ATOM    213  O5'   A A   9      20.037  82.177  35.380  1.00  0.00    -0.287 OA
ATOM    214  C5'   A A   9      21.446  82.050  35.573  1.00  0.00     0.216 C 
ATOM    215  C4'   A A   9      21.875  80.622  35.334  1.00  0.00     0.180 C 
ATOM    216  O4'   A A   9      21.733  79.874  36.578  1.00  0.00    -0.353 OA
ATOM    217  C1'   A A   9      21.139  78.613  36.312  1.00  0.00     0.262 C 
ATOM    218  N9    A A   9      19.776  78.622  36.845  1.00  0.00    -0.294 N 
ATOM    219  C4    A A   9      19.187  77.631  37.593  1.00  0.00     0.167 A 
ATOM    220  N3    A A   9      19.734  76.467  37.985  1.00  0.00    -0.222 NA
ATOM    221  C2    A A   9      18.863  75.755  38.697  1.00  0.00     0.237 A 
ATOM    222  N1    A A   9      17.602  76.053  39.035  1.00  0.00    -0.222 NA
ATOM    223  C6    A A   9      17.083  77.229  38.625  1.00  0.00     0.155 A 
ATOM    224  N6    A A   9      15.827  77.522  38.963  1.00  0.00    -0.382 N 
ATOM    225  H61   A A   9      15.414  78.395  38.670  1.00  0.00     0.157 HD
ATOM    226  H62   A A   9      15.295  76.870  39.519  1.00  0.00     0.157 HD
ATOM    227  C5    A A   9      17.905  78.075  37.863  1.00  0.00     0.149 A 
ATOM    228  N7    A A   9      17.689  79.325  37.297  1.00  0.00    -0.236 NA
ATOM    229  C8    A A   9      18.825  79.604  36.707  1.00  0.00     0.214 A 
ATOM    230  C2'   A A   9      21.214  78.410  34.801  1.00  0.00     0.199 C 
ATOM    231  O2'   A A   9      22.492  77.870  34.525  1.00  0.00    -0.388 OA
ATOM    232 'HO2   A A   9      23.140  78.491  34.857  1.00  0.00     0.210 HD
ATOM    233  C3'   A A   9      21.032  79.848  34.327  1.00  0.00     0.198 C 
ATOM    234  O3'   A A   9      21.415  80.124  32.970  1.00  0.00    -0.279 OA
ATOM    235  P     G A  10      22.784  79.535  32.355  1.00  0.00     0.408 P 
ATOM    236  OP1   G A  10      23.838  79.530  33.403  1.00  0.00    -0.624 OA
ATOM    237  OP2   G A  10      23.030  80.263  31.084  1.00  0.00    -0.624 OA
ATOM    238  O5'   G A  10      22.422  78.029  31.978  1.00  0.00    -0.287 OA
ATOM    239  C5'   G A  10      21.182  77.709  31.347  1.00  0.00     0.216 C 
ATOM    240  C4'   G A  10      20.671  76.378  31.847  1.00  0.00     0.180 C 
ATOM    241  O4'   G A  10      20.049  76.567  33.147  1.00  0.00    -0.353 OA
ATOM    242  C1'   G A  10      18.897  75.750  33.250  1.00  0.00     0.262 C 
ATOM    243  N9    G A  10      17.726  76.614  33.367  1.00  0.00    -0.293 N 
ATOM    244  C4    G A  10      16.588  76.352  34.088  1.00  0.00     0.187 A 
ATOM    245  N3    G A  10      16.356  75.252  34.833  1.00  0.00    -0.044 NA
ATOM    246  C2    G A  10      15.165  75.282  35.400  1.00  0.00     0.703 A 
ATOM    247  N2    G A  10      14.775  74.267  36.178  1.00  0.00    -0.233 N 
ATOM    248  H21   G A  10      15.400  73.488  36.321  1.00  0.00     0.174 HD
ATOM    249  H22   G A  10      13.862  74.276  36.611  1.00  0.00     0.174 HD
ATOM    250  N1    G A  10      14.268  76.308  35.250  1.00  0.00    -0.153 N 
ATOM    251  H1    G A  10      13.382  76.227  35.726  1.00  0.00     0.187 HD
ATOM    252  C6    G A  10      14.484  77.453  34.491  1.00  0.00     0.292 A 
ATOM    253  O6    G A  10      13.606  78.321  34.425  1.00  0.00    -0.265 OA
ATOM    254  C5    G A  10      15.762  77.437  33.875  1.00  0.00     0.173 A 
ATOM    255  N7    G A  10      16.373  78.366  33.043  1.00  0.00    -0.234 NA
ATOM    256  C8    G A  10      17.535  77.837  32.772  1.00  0.00     0.214 A 
ATOM    257  C2'   G A  10      18.865  74.851  32.015  1.00  0.00     0.199 C 
ATOM    258  O2'   G A  10      19.606  73.676  32.284  1.00  0.00    -0.388 OA
ATOM    259 'HO2   G A  10      20.408  73.731  31.764  1.00  0.00     0.210 HD
ATOM    260  C3'   G A  10      19.579  75.735  31.001  1.00  0.00     0.198 C 
ATOM    261  O3'   G A  10      20.119  74.992  29.911  1.00  0.00    -0.279 OA
ATOM    262  P     C A  11      19.299  74.892  28.530  1.00  0.00     0.408 P 
ATOM    263  OP1   C A  11      20.162  74.181  27.552  1.00  0.00    -0.624 OA
ATOM    264  OP2   C A  11      18.773  76.241  28.197  1.00  0.00    -0.624 OA
ATOM    265  O5'   C A  11      18.062  73.952  28.880  1.00  0.00    -0.287 OA
ATOM    266  C5'   C A  11      18.257  72.582  29.230  1.00  0.00     0.216 C 
ATOM    267  C4'   C A  11      16.925  71.885  29.394  1.00  0.00     0.180 C 
ATOM    268  O4'   C A  11      16.247  72.429  30.560  1.00  0.00    -0.353 OA
ATOM    269  C1'   C A  11      14.859  72.556  30.293  1.00  0.00     0.264 C 
ATOM    270  N1    C A  11      14.513  73.988  30.309  1.00  0.00    -0.278 N 
ATOM    271  C6    C A  11      15.469  74.941  30.093  1.00  0.00     0.102 A 
ATOM    272  C2    C A  11      13.187  74.361  30.552  1.00  0.00     0.352 A 
ATOM    273  O2    C A  11      12.336  73.478  30.740  1.00  0.00    -0.244 OA
ATOM    274  N3    C A  11      12.863  75.672  30.572  1.00  0.00    -0.177 NA
ATOM    275  C4    C A  11      13.804  76.594  30.362  1.00  0.00     0.128 A 
ATOM    276  N4    C A  11      13.438  77.875  30.390  1.00  0.00    -0.384 N 
ATOM    277  H41   C A  11      14.121  78.601  30.235  1.00  0.00     0.157 HD
ATOM    278  H42   C A  11      12.473  78.118  30.570  1.00  0.00     0.157 HD
ATOM    279  C5    C A  11      15.162  76.244  30.111  1.00  0.00     0.067 A 
ATOM    280  C2'   C A  11      14.597  71.871  28.954  1.00  0.00     0.199 C 
ATOM    281  O2'   C A  11      14.350  70.498  29.189  1.00  0.00    -0.388 OA
ATOM    282 'HO2   C A  11      15.037  70.009  28.736  1.00  0.00     0.210 HD
ATOM    283  C3'   C A  11      15.933  72.079  28.255  1.00  0.00     0.198 C 
ATOM    284  O3'   C A  11      16.151  71.142  27.203  1.00  0.00    -0.279 OA
ATOM    285  P     C A  12      15.515  71.411  25.749  1.00  0.00     0.408 P 
ATOM    286  OP1   C A  12      15.969  70.314  24.857  1.00  0.00    -0.624 OA
ATOM    287  OP2   C A  12      15.783  72.823  25.372  1.00  0.00    -0.624 OA
ATOM    288  O5'   C A  12      13.945  71.250  25.976  1.00  0.00    -0.287 OA
ATOM    289  C5'   C A  12      13.388  70.006  26.395  1.00  0.00     0.216 C 
ATOM    290  C4'   C A  12      11.924  70.174  26.729  1.00  0.00     0.180 C 
ATOM    291  O4'   C A  12      11.785  71.147  27.799  1.00  0.00    -0.353 OA
ATOM    292  C1'   C A  12      10.602  71.905  27.604  1.00  0.00     0.264 C 
ATOM    293  N1    C A  12      10.977  73.321  27.456  1.00  0.00    -0.278 N 
ATOM    294  C6    C A  12      12.203  73.677  26.968  1.00  0.00     0.102 A 
ATOM    295  C2    C A  12      10.054  74.303  27.823  1.00  0.00     0.352 A 
ATOM    296  O2    C A  12       8.949  73.954  28.263  1.00  0.00    -0.244 OA
ATOM    297  N3    C A  12      10.385  75.606  27.690  1.00  0.00    -0.177 NA
ATOM    298  C4    C A  12      11.586  75.943  27.217  1.00  0.00     0.128 A 
ATOM    299  N4    C A  12      11.870  77.240  27.107  1.00  0.00    -0.384 N 
ATOM    300  H41   C A  12      12.767  77.536  26.754  1.00  0.00     0.157 HD
ATOM    301  H42   C A  12      11.179  77.927  27.380  1.00  0.00     0.157 HD
ATOM    302  C5    C A  12      12.549  74.963  26.836  1.00  0.00     0.067 A 
ATOM    303  C2'   C A  12       9.883  71.329  26.384  1.00  0.00     0.199 C 
ATOM    304  O2'   C A  12       8.987  70.323  26.820  1.00  0.00    -0.388 OA
ATOM    305 'HO2   C A  12       9.148  69.555  26.269  1.00  0.00     0.210 HD
ATOM    306  C3'   C A  12      11.051  70.729  25.612  1.00  0.00     0.198 C 
ATOM    307  O3'   C A  12      10.640  69.711  24.705  1.00  0.00    -0.279 OA
ATOM    308  P     A A  13      10.283  70.094  23.183  1.00  0.00     0.408 P 
ATOM    309  OP1   A A  13       9.957  68.828  22.475  1.00  0.00    -0.624 OA
ATOM    310  OP2   A A  13      11.354  70.974  22.654  1.00  0.00    -0.624 OA
ATOM    311  O5'   A A  13       8.946  70.952  23.306  1.00  0.00    -0.287 OA
ATOM    312  C5'   A A  13       7.747  70.373  23.818  1.00  0.00     0.216 C 
ATOM    313  C4'   A A  13       6.662  71.418  23.922  1.00  0.00     0.180 C 
ATOM    314  O4'   A A  13       7.004  72.363  24.970  1.00  0.00    -0.353 OA
ATOM    315  C1'   A A  13       6.487  73.641  24.642  1.00  0.00     0.262 C 
ATOM    316  N9    A A  13       7.591  74.600  24.651  1.00  0.00    -0.294 N 
ATOM    317  C4    A A  13       7.493  75.947  24.901  1.00  0.00     0.167 A 
ATOM    318  N3    A A  13       6.378  76.644  25.183  1.00  0.00    -0.222 NA
ATOM    319  C2    A A  13       6.664  77.931  25.366  1.00  0.00     0.237 A 
ATOM    320  N1    A A  13       7.848  78.552  25.307  1.00  0.00    -0.222 NA
ATOM    321  C6    A A  13       8.948  77.823  25.026  1.00  0.00     0.155 A 
ATOM    322  N6    A A  13      10.127  78.444  24.973  1.00  0.00    -0.382 N 
ATOM    323  H61   A A  13      10.964  77.920  24.767  1.00  0.00     0.157 HD
ATOM    324  H62   A A  13      10.170  79.439  25.137  1.00  0.00     0.157 HD
ATOM    325  C5    A A  13       8.780  76.444  24.806  1.00  0.00     0.149 A 
ATOM    326  N7    A A  13       9.676  75.429  24.500  1.00  0.00    -0.236 NA
ATOM    327  C8    A A  13       8.924  74.359  24.417  1.00  0.00     0.214 A 
ATOM    328  C2'   A A  13       5.783  73.525  23.288  1.00  0.00     0.199 C 
ATOM    329  O2'   A A  13       4.407  73.281  23.513  1.00  0.00    -0.388 OA
ATOM    330 'HO2   A A  13       4.169  72.537  22.959  1.00  0.00     0.210 HD
ATOM    331  C3'   A A  13       6.464  72.297  22.697  1.00  0.00     0.198 C 
ATOM    332  O3'   A A  13       5.665  71.652  21.708  1.00  0.00    -0.279 OA
ATOM    333  P     A A  14       5.741  72.137  20.176  1.00  0.00     0.408 P 
ATOM    334  OP1   A A  14       4.973  71.159  19.366  1.00  0.00    -0.624 OA
ATOM    335  OP2   A A  14       7.161  72.414  19.838  1.00  0.00    -0.624 OA
ATOM    336  O5'   A A  14       4.948  73.520  20.167  1.00  0.00    -0.287 OA
ATOM    337  C5'   A A  14       3.563  73.577  20.504  1.00  0.00     0.216 C 
ATOM    338  C4'   A A  14       3.171  74.989  20.876  1.00  0.00     0.180 C 
ATOM    339  O4'   A A  14       4.250  75.590  21.648  1.00  0.00    -0.353 OA
ATOM    340  C1'   A A  14       4.771  76.706  20.953  1.00  0.00     0.262 C 
ATOM    341  N9    A A  14       6.224  76.715  21.118  1.00  0.00    -0.294 N 
ATOM    342  C4    A A  14       6.992  77.777  21.530  1.00  0.00     0.167 A 
ATOM    343  N3    A A  14       6.571  79.009  21.863  1.00  0.00    -0.222 NA
ATOM    344  C2    A A  14       7.599  79.779  22.213  1.00  0.00     0.237 A 
ATOM    345  N1    A A  14       8.903  79.478  22.263  1.00  0.00    -0.222 NA
ATOM    346  C6    A A  14       9.292  78.231  21.923  1.00  0.00     0.155 A 
ATOM    347  N6    A A  14      10.591  77.931  21.975  1.00  0.00    -0.382 N 
ATOM    348  H61   A A  14      10.902  77.004  21.726  1.00  0.00     0.157 HD
ATOM    349  H62   A A  14      11.258  78.634  22.260  1.00  0.00     0.157 HD
ATOM    350  C5    A A  14       8.298  77.319  21.534  1.00  0.00     0.149 A 
ATOM    351  N7    A A  14       8.352  75.991  21.132  1.00  0.00    -0.236 NA
ATOM    352  C8    A A  14       7.100  75.682  20.899  1.00  0.00     0.214 A 
ATOM    353  C2'   A A  14       4.310  76.570  19.505  1.00  0.00     0.199 C 
ATOM    354  O2'   A A  14       4.203  77.862  18.935  1.00  0.00    -0.388 OA
ATOM    355 'HO2   A A  14       3.486  78.310  19.387  1.00  0.00     0.210 HD
ATOM    356  C3'   A A  14       2.941  75.930  19.698  1.00  0.00     0.198 C 
ATOM    357  O3'   A A  14       1.931  76.892  19.997  1.00  0.00    -0.279 OA
ATOM    358  P     G A  15       0.793  77.223  18.911  1.00  0.00     0.408 P 
ATOM    359  OP1   G A  15      -0.421  76.460  19.299  1.00  0.00    -0.624 OA
ATOM    360  OP2   G A  15       1.365  77.049  17.552  1.00  0.00    -0.624 OA
ATOM    361  O5'   G A  15       0.489  78.773  19.130  1.00  0.00    -0.287 OA
ATOM    362  C5'   G A  15       0.232  79.299  20.434  1.00  0.00     0.216 C 
ATOM    363  C4'   G A  15       1.528  79.460  21.199  1.00  0.00     0.180 C 
ATOM    364  O4'   G A  15       2.595  79.788  20.265  1.00  0.00    -0.353 OA
ATOM    365  C1'   G A  15       3.453  80.759  20.839  1.00  0.00     0.262 C 
ATOM    366  N9    G A  15       3.350  81.986  20.054  1.00  0.00    -0.293 N 
ATOM    367  C4    G A  15       4.279  82.995  19.990  1.00  0.00     0.187 A 
ATOM    368  N3    G A  15       5.461  83.029  20.640  1.00  0.00    -0.044 NA
ATOM    369  C2    G A  15       6.136  84.133  20.381  1.00  0.00     0.703 A 
ATOM    370  N2    G A  15       7.331  84.327  20.945  1.00  0.00    -0.233 N 
ATOM    371  H21   G A  15       7.705  83.624  21.566  1.00  0.00     0.174 HD
ATOM    372  H22   G A  15       7.853  85.171  20.761  1.00  0.00     0.174 HD
ATOM    373  N1    G A  15       5.691  85.129  19.549  1.00  0.00    -0.153 N 
ATOM    374  H1    G A  15       6.285  85.933  19.419  1.00  0.00     0.187 HD
ATOM    375  C6    G A  15       4.480  85.118  18.869  1.00  0.00     0.292 A 
ATOM    376  O6    G A  15       4.175  86.071  18.143  1.00  0.00    -0.265 OA
ATOM    377  C5    G A  15       3.740  83.936  19.137  1.00  0.00     0.173 A 
ATOM    378  N7    G A  15       2.498  83.523  18.672  1.00  0.00    -0.234 NA
ATOM    379  C8    G A  15       2.311  82.364  19.240  1.00  0.00     0.214 A 
ATOM    380  C2'   G A  15       3.035  80.930  22.298  1.00  0.00     0.199 C 
ATOM    381  O2'   G A  15       3.732  79.984  23.088  1.00  0.00    -0.388 OA
ATOM    382 'HO2   G A  15       3.072  79.499  23.584  1.00  0.00     0.210 HD
ATOM    383  C3'   G A  15       1.552  80.593  22.217  1.00  0.00     0.198 C 
ATOM    384  O3'   G A  15       1.018  80.185  23.474  1.00  0.00    -0.279 OA
ATOM    385  P     U A  16       0.624  81.294  24.572  1.00  0.00     0.408 P 
ATOM    386  OP1   U A  16       0.695  80.638  25.902  1.00  0.00    -0.624 OA
ATOM    387  OP2   U A  16      -0.642  81.942  24.142  1.00  0.00    -0.624 OA
ATOM    388  O5'   U A  16       1.793  82.373  24.471  1.00  0.00    -0.287 OA
ATOM    389  C5'   U A  16       2.344  82.985  25.638  1.00  0.00     0.216 C 
ATOM    390  C4'   U A  16       3.836  83.176  25.473  1.00  0.00     0.180 C 
ATOM    391  O4'   U A  16       4.159  83.138  24.053  1.00  0.00    -0.353 OA
ATOM    392  C1'   U A  16       4.990  84.232  23.719  1.00  0.00     0.264 C 
ATOM    393  N1    U A  16       4.196  85.198  22.944  1.00  0.00    -0.280 N 
ATOM    394  C6    U A  16       2.835  85.045  22.790  1.00  0.00     0.104 A 
ATOM    395  C2    U A  16       4.860  86.270  22.371  1.00  0.00     0.331 A 
ATOM    396  O2    U A  16       6.061  86.442  22.482  1.00  0.00    -0.246 OA
ATOM    397  N3    U A  16       4.064  87.133  21.662  1.00  0.00    -0.275 N 
ATOM    398  H3    U A  16       4.522  87.921  21.233  1.00  0.00     0.173 HD
ATOM    399  C4    U A  16       2.705  87.040  21.472  1.00  0.00     0.250 A 
ATOM    400  O4    U A  16       2.127  87.907  20.817  1.00  0.00    -0.268 OA
ATOM    401  C5    U A  16       2.092  85.908  22.091  1.00  0.00     0.092 A 
ATOM    402  C2'   U A  16       5.542  84.785  25.030  1.00  0.00     0.199 C 
ATOM    403  O2'   U A  16       6.689  84.036  25.387  1.00  0.00    -0.388 OA
ATOM    404 'HO2   U A  16       6.441  83.477  26.125  1.00  0.00     0.210 HD
ATOM    405  C3'   U A  16       4.380  84.510  25.977  1.00  0.00     0.198 C 
ATOM    406  O3'   U A  16       4.804  84.425  27.336  1.00  0.00    -0.279 OA
ATOM    407  P     G A  17       3.754  84.707  28.524  1.00  0.00     0.408 P 
ATOM    408  OP1   G A  17       2.624  85.489  27.959  1.00  0.00    -0.624 OA
ATOM    409  OP2   G A  17       4.510  85.245  29.684  1.00  0.00    -0.624 OA
ATOM    410  O5'   G A  17       3.208  83.260  28.907  1.00  0.00    -0.287 OA
ATOM    411  C5'   G A  17       2.805  82.954  30.242  1.00  0.00     0.216 C 
ATOM    412  C4'   G A  17       2.645  81.459  30.412  1.00  0.00     0.180 C 
ATOM    413  O4'   G A  17       3.129  80.787  29.217  1.00  0.00    -0.353 OA
ATOM    414  C1'   G A  17       3.803  79.595  29.579  1.00  0.00     0.262 C 
ATOM    415  N9    G A  17       5.199  79.709  29.171  1.00  0.00    -0.293 N 
ATOM    416  C4    G A  17       6.059  78.669  28.919  1.00  0.00     0.187 A 
ATOM    417  N3    G A  17       5.760  77.356  28.999  1.00  0.00    -0.044 NA
ATOM    418  C2    G A  17       6.795  76.595  28.698  1.00  0.00     0.703 A 
ATOM    419  N2    G A  17       6.669  75.266  28.727  1.00  0.00    -0.233 N 
ATOM    420  H21   G A  17       5.782  74.856  28.979  1.00  0.00     0.174 HD
ATOM    421  H22   G A  17       7.456  74.673  28.500  1.00  0.00     0.174 HD
ATOM    422  N1    G A  17       8.030  77.079  28.348  1.00  0.00    -0.153 N 
ATOM    423  H1    G A  17       8.754  76.410  28.136  1.00  0.00     0.187 HD
ATOM    424  C6    G A  17       8.363  78.426  28.258  1.00  0.00     0.292 A 
ATOM    425  O6    G A  17       9.509  78.754  27.932  1.00  0.00    -0.265 OA
ATOM    426  C5    G A  17       7.258  79.260  28.577  1.00  0.00     0.173 A 
ATOM    427  N7    G A  17       7.153  80.644  28.612  1.00  0.00    -0.234 NA
ATOM    428  C8    G A  17       5.917  80.862  28.968  1.00  0.00     0.214 A 
ATOM    429  C2'   G A  17       3.627  79.403  31.085  1.00  0.00     0.199 C 
ATOM    430  O2'   G A  17       2.458  78.638  31.311  1.00  0.00    -0.388 OA
ATOM    431 'HO2   G A  17       2.718  77.885  31.845  1.00  0.00     0.210 HD
ATOM    432  C3'   G A  17       3.454  80.845  31.546  1.00  0.00     0.198 C 
ATOM    433  O3'   G A  17       2.771  80.939  32.795  1.00  0.00    -0.279 OA
ATOM    434  P     G A  18       3.585  80.737  34.167  1.00  0.00     0.408 P 
ATOM    435  OP1   G A  18       2.639  80.990  35.284  1.00  0.00    -0.624 OA
ATOM    436  OP2   G A  18       4.848  81.513  34.087  1.00  0.00    -0.624 OA
ATOM    437  O5'   G A  18       3.956  79.186  34.174  1.00  0.00    -0.287 OA
ATOM    438  C5'   G A  18       2.978  78.197  34.489  1.00  0.00     0.216 C 
ATOM    439  C4'   G A  18       3.542  76.814  34.263  1.00  0.00     0.180 C 
ATOM    440  O4'   G A  18       4.168  76.762  32.954  1.00  0.00    -0.353 OA
ATOM    441  C1'   G A  18       5.282  75.887  32.995  1.00  0.00     0.262 C 
ATOM    442  N9    G A  18       6.468  76.625  32.576  1.00  0.00    -0.293 N 
ATOM    443  C4    G A  18       7.642  76.083  32.111  1.00  0.00     0.187 A 
ATOM    444  N3    G A  18       7.901  74.768  31.960  1.00  0.00    -0.044 NA
ATOM    445  C2    G A  18       9.121  74.556  31.499  1.00  0.00     0.703 A 
ATOM    446  N2    G A  18       9.544  73.306  31.295  1.00  0.00    -0.233 N 
ATOM    447  H21   G A  18       8.926  72.535  31.495  1.00  0.00     0.174 HD
ATOM    448  H22   G A  18      10.476  73.134  30.944  1.00  0.00     0.174 HD
ATOM    449  N1    G A  18      10.014  75.553  31.206  1.00  0.00    -0.153 N 
ATOM    450  H1    G A  18      10.920  75.281  30.857  1.00  0.00     0.187 HD
ATOM    451  C6    G A  18       9.769  76.914  31.349  1.00  0.00     0.292 A 
ATOM    452  O6    G A  18      10.648  77.731  31.051  1.00  0.00    -0.265 OA
ATOM    453  C5    G A  18       8.463  77.159  31.848  1.00  0.00     0.173 A 
ATOM    454  N7    G A  18       7.819  78.354  32.140  1.00  0.00    -0.234 NA
ATOM    455  C8    G A  18       6.642  77.988  32.568  1.00  0.00     0.214 A 
ATOM    456  C2'   G A  18       5.389  75.328  34.416  1.00  0.00     0.199 C 
ATOM    457  O2'   G A  18       4.710  74.087  34.468  1.00  0.00    -0.388 OA
ATOM    458 'HO2   G A  18       4.038  74.175  35.145  1.00  0.00     0.210 HD
ATOM    459  C3'   G A  18       4.649  76.391  35.219  1.00  0.00     0.198 C 
ATOM    460  O3'   G A  18       4.121  75.876  36.440  1.00  0.00    -0.279 OA
ATOM    461  P     C A  19       5.000  75.948  37.786  1.00  0.00     0.408 P 
ATOM    462  OP1   C A  19       4.225  75.281  38.862  1.00  0.00    -0.624 OA
ATOM    463  OP2   C A  19       5.456  77.350  37.970  1.00  0.00    -0.624 OA
ATOM    464  O5'   C A  19       6.276  75.048  37.466  1.00  0.00    -0.287 OA
ATOM    465  C5'   C A  19       6.142  73.655  37.179  1.00  0.00     0.216 C 
ATOM    466  C4'   C A  19       7.490  72.974  37.256  1.00  0.00     0.180 C 
ATOM    467  O4'   C A  19       8.400  73.638  36.332  1.00  0.00    -0.353 OA
ATOM    468  C1'   C A  19       9.462  74.230  37.054  1.00  0.00     0.264 C 
ATOM    469  N1    C A  19       9.763  75.538  36.454  1.00  0.00    -0.278 N 
ATOM    470  C6    C A  19       8.784  76.480  36.301  1.00  0.00     0.102 A 
ATOM    471  C2    C A  19      11.070  75.808  36.044  1.00  0.00     0.352 A 
ATOM    472  O2    C A  19      11.937  74.931  36.181  1.00  0.00    -0.244 OA
ATOM    473  N3    C A  19      11.360  77.013  35.511  1.00  0.00    -0.177 NA
ATOM    474  C4    C A  19      10.401  77.930  35.376  1.00  0.00     0.128 A 
ATOM    475  N4    C A  19      10.741  79.110  34.859  1.00  0.00    -0.384 N 
ATOM    476  H41   C A  19      10.051  79.838  34.740  1.00  0.00     0.157 HD
ATOM    477  H42   C A  19      11.704  79.269  34.598  1.00  0.00     0.157 HD
ATOM    478  C5    C A  19       9.055  77.679  35.772  1.00  0.00     0.067 A 
ATOM    479  C2'   C A  19       9.011  74.311  38.509  1.00  0.00     0.199 C 
ATOM    480  O2'   C A  19      10.152  74.250  39.346  1.00  0.00    -0.388 OA
ATOM    481 'HO2   C A  19      10.289  73.326  39.556  1.00  0.00     0.210 HD
ATOM    482  C3'   C A  19       8.174  73.045  38.619  1.00  0.00     0.198 C 
ATOM    483  O3'   C A  19       8.984  71.897  38.868  1.00  0.00    -0.279 OA
ATOM    484  P     C A  20       8.386  70.655  39.700  1.00  0.00     0.408 P 
ATOM    485  OP1   C A  20       7.130  71.099  40.356  1.00  0.00    -0.624 OA
ATOM    486  OP2   C A  20       9.482  70.089  40.526  1.00  0.00    -0.624 OA
ATOM    487  O5'   C A  20       8.007  69.588  38.577  1.00  0.00    -0.287 OA
ATOM    488  C5'   C A  20       8.691  69.561  37.326  1.00  0.00     0.216 C 
ATOM    489  C4'   C A  20       9.081  68.143  36.977  1.00  0.00     0.180 C 
ATOM    490  O4'   C A  20       8.228  67.684  35.889  1.00  0.00    -0.353 OA
ATOM    491  C1'   C A  20       9.019  67.377  34.758  1.00  0.00     0.264 C 
ATOM    492  N1    C A  20       8.294  67.811  33.554  1.00  0.00    -0.278 N 
ATOM    493  C6    C A  20       7.927  69.118  33.389  1.00  0.00     0.102 A 
ATOM    494  C2    C A  20       7.981  66.863  32.577  1.00  0.00     0.352 A 
ATOM    495  O2    C A  20       8.327  65.686  32.752  1.00  0.00    -0.244 OA
ATOM    496  N3    C A  20       7.313  67.251  31.468  1.00  0.00    -0.177 NA
ATOM    497  C4    C A  20       6.959  68.528  31.317  1.00  0.00     0.128 A 
ATOM    498  N4    C A  20       6.301  68.864  30.209  1.00  0.00    -0.384 N 
ATOM    499  H41   C A  20       6.016  69.822  30.061  1.00  0.00     0.157 HD
ATOM    500  H42   C A  20       6.087  68.159  29.519  1.00  0.00     0.157 HD
ATOM    501  C5    C A  20       7.266  69.517  32.296  1.00  0.00     0.067 A 
ATOM    502  C2'   C A  20      10.363  68.071  34.965  1.00  0.00     0.199 C 
ATOM    503  O2'   C A  20      11.368  67.329  34.303  1.00  0.00    -0.388 OA
ATOM    504 'HO2   C A  20      11.810  66.805  34.971  1.00  0.00     0.210 HD
ATOM    505  C3'   C A  20      10.512  67.973  36.478  1.00  0.00     0.198 C 
ATOM    506  O3'   C A  20      11.064  66.723  36.886  1.00  0.00    -0.279 OA
ATOM    507  P     A A  21      12.071  66.664  38.139  1.00  0.00     0.408 P 
ATOM    508  OP1   A A  21      11.671  67.735  39.087  1.00  0.00    -0.624 OA
ATOM    509  OP2   A A  21      12.142  65.257  38.609  1.00  0.00    -0.624 OA
ATOM    510  O5'   A A  21      13.484  67.060  37.517  1.00  0.00    -0.287 OA
ATOM    511  C5'   A A  21      14.182  66.171  36.644  1.00  0.00     0.216 C 
ATOM    512  C4'   A A  21      15.584  66.679  36.396  1.00  0.00     0.180 C 
ATOM    513  O4'   A A  21      15.520  67.745  35.409  1.00  0.00    -0.353 OA
ATOM    514  C1'   A A  21      15.857  68.980  36.013  1.00  0.00     0.262 C 
ATOM    515  N9    A A  21      14.892  69.985  35.568  1.00  0.00    -0.294 N 
ATOM    516  C4    A A  21      15.146  71.055  34.744  1.00  0.00     0.167 A 
ATOM    517  N3    A A  21      16.320  71.394  34.185  1.00  0.00    -0.222 NA
ATOM    518  C2    A A  21      16.187  72.493  33.445  1.00  0.00     0.237 A 
ATOM    519  N1    A A  21      15.095  73.236  33.219  1.00  0.00    -0.222 NA
ATOM    520  C6    A A  21      13.933  72.868  33.797  1.00  0.00     0.155 A 
ATOM    521  N6    A A  21      12.848  73.608  33.574  1.00  0.00    -0.382 N 
ATOM    522  H61   A A  21      11.968  73.352  33.996  1.00  0.00     0.157 HD
ATOM    523  H62   A A  21      12.913  74.427  32.988  1.00  0.00     0.157 HD
ATOM    524  C5    A A  21      13.939  71.717  34.606  1.00  0.00     0.149 A 
ATOM    525  N7    A A  21      12.942  71.079  35.330  1.00  0.00    -0.236 NA
ATOM    526  C8    A A  21      13.557  70.061  35.881  1.00  0.00     0.214 A 
ATOM    527  C2'   A A  21      15.867  68.759  37.523  1.00  0.00     0.199 C 
ATOM    528  O2'   A A  21      16.843  69.612  38.093  1.00  0.00    -0.388 OA
ATOM    529 'HO2   A A  21      17.210  69.161  38.858  1.00  0.00     0.210 HD
ATOM    530  C3'   A A  21      16.282  67.294  37.604  1.00  0.00     0.198 C 
ATOM    531  O3'   A A  21      17.694  67.121  37.530  1.00  0.00    -0.279 OA
ATOM    532  P     A A  22      18.545  66.915  38.879  1.00  0.00     0.408 P 
ATOM    533  OP1   A A  22      18.000  65.714  39.563  1.00  0.00    -0.624 OA
ATOM    534  OP2   A A  22      19.989  66.968  38.530  1.00  0.00    -0.624 OA
ATOM    535  O5'   A A  22      18.192  68.199  39.753  1.00  0.00    -0.287 OA
ATOM    536  C5'   A A  22      17.880  68.082  41.140  1.00  0.00     0.216 C 
ATOM    537  C4'   A A  22      18.017  69.425  41.820  1.00  0.00     0.180 C 
ATOM    538  O4'   A A  22      19.367  69.918  41.589  1.00  0.00    -0.353 OA
ATOM    539  C1'   A A  22      19.310  71.191  40.979  1.00  0.00     0.262 C 
ATOM    540  N9    A A  22      20.430  71.306  40.046  1.00  0.00    -0.294 N 
ATOM    541  C4    A A  22      21.133  72.450  39.753  1.00  0.00     0.167 A 
ATOM    542  N3    A A  22      20.937  73.680  40.260  1.00  0.00    -0.222 NA
ATOM    543  C2    A A  22      21.808  74.543  39.745  1.00  0.00     0.237 A 
ATOM    544  N1    A A  22      22.781  74.334  38.848  1.00  0.00    -0.222 NA
ATOM    545  C6    A A  22      22.950  73.087  38.359  1.00  0.00     0.155 A 
ATOM    546  N6    A A  22      23.918  72.879  37.466  1.00  0.00    -0.382 N 
ATOM    547  H61   A A  22      24.061  71.955  37.088  1.00  0.00     0.157 HD
ATOM    548  H62   A A  22      24.500  73.650  37.172  1.00  0.00     0.157 HD
ATOM    549  C5    A A  22      22.089  72.078  38.826  1.00  0.00     0.149 A 
ATOM    550  N7    A A  22      21.993  70.724  38.538  1.00  0.00    -0.236 NA
ATOM    551  C8    A A  22      20.996  70.313  39.285  1.00  0.00     0.214 A 
ATOM    552  C2'   A A  22      17.939  71.292  40.320  1.00  0.00     0.199 C 
ATOM    553  O2'   A A  22      17.558  72.655  40.271  1.00  0.00    -0.388 OA
ATOM    554 'HO2   A A  22      17.333  72.913  41.166  1.00  0.00     0.210 HD
ATOM    555  C3'   A A  22      17.076  70.514  41.309  1.00  0.00     0.198 C 
ATOM    556  O3'   A A  22      16.608  71.333  42.378  1.00  0.00    -0.279 OA
ATOM    557  P     A A  23      15.028  71.557  42.587  1.00  0.00     0.408 P 
ATOM    558  OP1   A A  23      14.749  72.987  42.292  1.00  0.00    -0.624 OA
ATOM    559  OP2   A A  23      14.282  70.499  41.859  1.00  0.00    -0.624 OA
ATOM    560  O5'   A A  23      14.813  71.332  44.151  1.00  0.00    -0.287 OA
ATOM    561  C5'   A A  23      14.857  70.024  44.720  1.00  0.00     0.216 C 
ATOM    562  C4'   A A  23      15.838  69.990  45.870  1.00  0.00     0.180 C 
ATOM    563  O4'   A A  23      15.090  70.107  47.113  1.00  0.00    -0.353 OA
ATOM    564  C1'   A A  23      15.343  68.982  47.929  1.00  0.00     0.262 C 
ATOM    565  N9    A A  23      14.114  68.644  48.646  1.00  0.00    -0.294 N 
ATOM    566  C4    A A  23      14.023  68.251  49.959  1.00  0.00     0.167 A 
ATOM    567  N3    A A  23      15.029  68.100  50.837  1.00  0.00    -0.222 NA
ATOM    568  C2    A A  23      14.565  67.706  52.020  1.00  0.00     0.237 A 
ATOM    569  N1    A A  23      13.303  67.464  52.397  1.00  0.00    -0.222 NA
ATOM    570  C6    A A  23      12.315  67.625  51.491  1.00  0.00     0.155 A 
ATOM    571  N6    A A  23      11.060  67.385  51.869  1.00  0.00    -0.382 N 
ATOM    572  H61   A A  23      10.304  67.498  51.210  1.00  0.00     0.157 HD
ATOM    573  H62   A A  23      10.870  67.092  52.816  1.00  0.00     0.157 HD
ATOM    574  C5    A A  23      12.676  68.040  50.196  1.00  0.00     0.149 A 
ATOM    575  N7    A A  23      11.930  68.295  49.054  1.00  0.00    -0.236 NA
ATOM    576  C8    A A  23      12.828  68.648  48.165  1.00  0.00     0.214 A 
ATOM    577  C2'   A A  23      15.850  67.884  47.001  1.00  0.00     0.199 C 
ATOM    578  O2'   A A  23      16.692  67.017  47.736  1.00  0.00    -0.388 OA
ATOM    579 'HO2   A A  23      17.560  67.424  47.745  1.00  0.00     0.210 HD
ATOM    580  C3'   A A  23      16.650  68.702  45.994  1.00  0.00     0.198 C 
ATOM    581  O3'   A A  23      17.975  68.961  46.452  1.00  0.00    -0.279 OA
ATOM    582  P     G A  24      19.184  69.061  45.395  1.00  0.00     0.408 P 
ATOM    583  OP1   G A  24      20.435  69.220  46.180  1.00  0.00    -0.624 OA
ATOM    584  OP2   G A  24      19.060  67.934  44.435  1.00  0.00    -0.624 OA
ATOM    585  O5'   G A  24      18.903  70.424  44.619  1.00  0.00    -0.287 OA
ATOM    586  C5'   G A  24      19.111  71.687  45.249  1.00  0.00     0.216 C 
ATOM    587  C4'   G A  24      20.478  72.225  44.899  1.00  0.00     0.180 C 
ATOM    588  O4'   G A  24      20.517  72.503  43.471  1.00  0.00    -0.353 OA
ATOM    589  C1'   G A  24      21.025  73.803  43.249  1.00  0.00     0.262 C 
ATOM    590  N9    G A  24      19.918  74.665  42.847  1.00  0.00    -0.293 N 
ATOM    591  C4    G A  24      20.005  75.966  42.412  1.00  0.00     0.187 A 
ATOM    592  N3    G A  24      21.139  76.686  42.278  1.00  0.00    -0.044 NA
ATOM    593  C2    G A  24      20.898  77.907  41.838  1.00  0.00     0.703 A 
ATOM    594  N2    G A  24      21.913  78.756  41.651  1.00  0.00    -0.233 N 
ATOM    595  H21   G A  24      22.855  78.450  41.848  1.00  0.00     0.174 HD
ATOM    596  H22   G A  24      21.741  79.693  41.316  1.00  0.00     0.174 HD
ATOM    597  N1    G A  24      19.647  78.389  41.552  1.00  0.00    -0.153 N 
ATOM    598  H1    G A  24      19.568  79.340  41.218  1.00  0.00     0.187 HD
ATOM    599  C6    G A  24      18.466  77.669  41.684  1.00  0.00     0.292 A 
ATOM    600  O6    G A  24      17.387  78.200  41.403  1.00  0.00    -0.265 OA
ATOM    601  C5    G A  24      18.707  76.353  42.155  1.00  0.00     0.173 A 
ATOM    602  N7    G A  24      17.821  75.318  42.422  1.00  0.00    -0.234 NA
ATOM    603  C8    G A  24      18.583  74.341  42.826  1.00  0.00     0.214 A 
ATOM    604  C2'   G A  24      21.717  74.233  44.540  1.00  0.00     0.199 C 
ATOM    605  O2'   G A  24      23.034  73.714  44.547  1.00  0.00    -0.388 OA
ATOM    606 'HO2   G A  24      23.085  73.110  45.288  1.00  0.00     0.210 HD
ATOM    607  C3'   G A  24      20.847  73.538  45.581  1.00  0.00     0.198 C 
ATOM    608  O3'   G A  24      21.544  73.308  46.803  1.00  0.00    -0.279 OA
ATOM    609  P     C A  25      21.170  74.165  48.112  1.00  0.00     0.408 P 
ATOM    610  OP1   C A  25      22.090  73.741  49.198  1.00  0.00    -0.624 OA
ATOM    611  OP2   C A  25      19.701  74.087  48.321  1.00  0.00    -0.624 OA
ATOM    612  O5'   C A  25      21.535  75.663  47.710  1.00  0.00    -0.287 OA
ATOM    613  C5'   C A  25      22.865  76.019  47.337  1.00  0.00     0.216 C 
ATOM    614  C4'   C A  25      22.871  77.363  46.649  1.00  0.00     0.180 C 
ATOM    615  O4'   C A  25      22.162  77.256  45.385  1.00  0.00    -0.353 OA
ATOM    616  C1'   C A  25      21.437  78.451  45.142  1.00  0.00     0.264 C 
ATOM    617  N1    C A  25      20.001  78.127  45.092  1.00  0.00    -0.278 N 
ATOM    618  C6    C A  25      19.542  76.898  45.479  1.00  0.00     0.102 A 
ATOM    619  C2    C A  25      19.107  79.101  44.641  1.00  0.00     0.352 A 
ATOM    620  O2    C A  25      19.547  80.207  44.296  1.00  0.00    -0.244 OA
ATOM    621  N3    C A  25      17.788  78.817  44.591  1.00  0.00    -0.177 NA
ATOM    622  C4    C A  25      17.350  77.614  44.966  1.00  0.00     0.128 A 
ATOM    623  N4    C A  25      16.041  77.379  44.895  1.00  0.00    -0.384 N 
ATOM    624  H41   C A  25      15.669  76.482  45.168  1.00  0.00     0.157 HD
ATOM    625  H42   C A  25      15.421  78.104  44.559  1.00  0.00     0.157 HD
ATOM    626  C5    C A  25      18.238  76.600  45.430  1.00  0.00     0.067 A 
ATOM    627  C2'   C A  25      21.801  79.437  46.252  1.00  0.00     0.199 C 
ATOM    628  O2'   C A  25      22.933  80.181  45.843  1.00  0.00    -0.388 OA
ATOM    629 'HO2   C A  25      23.564  80.142  46.562  1.00  0.00     0.210 HD
ATOM    630  C3'   C A  25      22.148  78.482  47.385  1.00  0.00     0.198 C 
ATOM    631  O3'   C A  25      22.973  79.084  48.378  1.00  0.00    -0.279 OA
ATOM    632  P     C A  26      22.306  79.703  49.705  1.00  0.00     0.408 P 
ATOM    633  OP1   C A  26      23.406  79.996  50.659  1.00  0.00    -0.624 OA
ATOM    634  OP2   C A  26      21.185  78.824  50.126  1.00  0.00    -0.624 OA
ATOM    635  O5'   C A  26      21.689  81.089  49.217  1.00  0.00    -0.287 OA
ATOM    636  C5'   C A  26      22.519  82.102  48.650  1.00  0.00     0.216 C 
ATOM    637  C4'   C A  26      21.673  83.240  48.131  1.00  0.00     0.180 C 
ATOM    638  O4'   C A  26      20.883  82.773  47.002  1.00  0.00    -0.353 OA
ATOM    639  C1'   C A  26      19.605  83.389  47.028  1.00  0.00     0.264 C 
ATOM    640  N1    C A  26      18.584  82.345  47.207  1.00  0.00    -0.278 N 
ATOM    641  C6    C A  26      18.919  81.106  47.679  1.00  0.00     0.102 A 
ATOM    642  C2    C A  26      17.257  82.639  46.886  1.00  0.00     0.352 A 
ATOM    643  O2    C A  26      16.977  83.769  46.463  1.00  0.00    -0.244 OA
ATOM    644  N3    C A  26      16.310  81.689  47.045  1.00  0.00    -0.177 NA
ATOM    645  C4    C A  26      16.648  80.482  47.502  1.00  0.00     0.128 A 
ATOM    646  N4    C A  26      15.680  79.577  47.639  1.00  0.00    -0.384 N 
ATOM    647  H41   C A  26      15.889  78.652  47.982  1.00  0.00     0.157 HD
ATOM    648  H42   C A  26      14.731  79.826  47.392  1.00  0.00     0.157 HD
ATOM    649  C5    C A  26      17.993  80.152  47.839  1.00  0.00     0.067 A 
ATOM    650  C2'   C A  26      19.623  84.419  48.157  1.00  0.00     0.199 C 
ATOM    651  O2'   C A  26      20.094  85.651  47.644  1.00  0.00    -0.388 OA
ATOM    652 'HO2   C A  26      20.658  86.033  48.317  1.00  0.00     0.210 HD
ATOM    653  C3'   C A  26      20.638  83.789  49.102  1.00  0.00     0.198 C 
ATOM    654  O3'   C A  26      21.200  84.734  50.008  1.00  0.00    -0.279 OA
ATOM    655  P     C A  27      20.502  84.984  51.436  1.00  0.00     0.408 P 
ATOM    656  OP1   C A  27      21.429  85.817  52.244  1.00  0.00    -0.624 OA
ATOM    657  OP2   C A  27      20.034  83.678  51.969  1.00  0.00    -0.624 OA
ATOM    658  O5'   C A  27      19.218  85.863  51.089  1.00  0.00    -0.287 OA
ATOM    659  C5'   C A  27      19.352  87.191  50.589  1.00  0.00     0.216 C 
ATOM    660  C4'   C A  27      18.009  87.723  50.148  1.00  0.00     0.180 C 
ATOM    661  O4'   C A  27      17.436  86.826  49.159  1.00  0.00    -0.353 OA
ATOM    662  C1'   C A  27      16.023  86.827  49.282  1.00  0.00     0.264 C 
ATOM    663  N1    C A  27      15.572  85.447  49.535  1.00  0.00    -0.278 N 
ATOM    664  C6    C A  27      16.449  84.487  49.957  1.00  0.00     0.102 A 
ATOM    665  C2    C A  27      14.226  85.133  49.335  1.00  0.00     0.352 A 
ATOM    666  O2    C A  27      13.451  86.021  48.958  1.00  0.00    -0.244 OA
ATOM    667  N3    C A  27      13.800  83.870  49.561  1.00  0.00    -0.177 NA
ATOM    668  C4    C A  27      14.664  82.938  49.966  1.00  0.00     0.128 A 
ATOM    669  N4    C A  27      14.199  81.706  50.170  1.00  0.00    -0.384 N 
ATOM    670  H41   C A  27      14.819  80.970  50.476  1.00  0.00     0.157 HD
ATOM    671  H42   C A  27      13.221  81.510  50.010  1.00  0.00     0.157 HD
ATOM    672  C5    C A  27      16.044  83.229  50.180  1.00  0.00     0.067 A 
ATOM    673  C2'   C A  27      15.657  87.799  50.404  1.00  0.00     0.199 C 
ATOM    674  O2'   C A  27      15.415  89.074  49.842  1.00  0.00    -0.388 OA
ATOM    675 'HO2   C A  27      15.898  89.707  50.375  1.00  0.00     0.210 HD
ATOM    676  C3'   C A  27      16.939  87.797  51.226  1.00  0.00     0.198 C 
ATOM    677  O3'   C A  27      17.072  88.966  52.032  1.00  0.00    -0.279 OA
ATOM    678  P     C A  28      16.440  88.994  53.511  1.00  0.00     0.408 P 
ATOM    679  OP1   C A  28      17.010  90.172  54.214  1.00  0.00    -0.624 OA
ATOM    680  OP2   C A  28      16.581  87.642  54.112  1.00  0.00    -0.624 OA
ATOM    681  O5'   C A  28      14.888  89.260  53.265  1.00  0.00    -0.287 OA
ATOM    682  C5'   C A  28      14.425  90.518  52.770  1.00  0.00     0.216 C 
ATOM    683  C4'   C A  28      12.919  90.598  52.880  1.00  0.00     0.180 C 
ATOM    684  O4'   C A  28      12.325  89.769  51.840  1.00  0.00    -0.353 OA
ATOM    685  C1'   C A  28      11.242  89.028  52.378  1.00  0.00     0.264 C 
ATOM    686  N1    C A  28      11.629  87.608  52.425  1.00  0.00    -0.278 N 
ATOM    687  C6    C A  28      12.946  87.247  52.487  1.00  0.00     0.102 A 
ATOM    688  C2    C A  28      10.630  86.632  52.409  1.00  0.00     0.352 A 
ATOM    689  O2    C A  28       9.444  86.985  52.359  1.00  0.00    -0.244 OA
ATOM    690  N3    C A  28      10.983  85.326  52.451  1.00  0.00    -0.177 NA
ATOM    691  C4    C A  28      12.271  84.985  52.506  1.00  0.00     0.128 A 
ATOM    692  N4    C A  28      12.570  83.687  52.542  1.00  0.00    -0.384 N 
ATOM    693  H41   C A  28      13.532  83.385  52.583  1.00  0.00     0.157 HD
ATOM    694  H42   C A  28      11.827  83.002  52.524  1.00  0.00     0.157 HD
ATOM    695  C5    C A  28      13.309  85.958  52.528  1.00  0.00     0.067 A 
ATOM    696  C2'   C A  28      10.936  89.628  53.747  1.00  0.00     0.199 C 
ATOM    697  O2'   C A  28      10.074  90.739  53.578  1.00  0.00    -0.388 OA
ATOM    698 'HO2   C A  28      10.355  91.404  54.207  1.00  0.00     0.210 HD
ATOM    699  C3'   C A  28      12.328  90.068  54.180  1.00  0.00     0.198 C 
ATOM    700  O3'   C A  28      12.296  91.071  55.192  1.00  0.00    -0.279 OA
ATOM    701  P     C A  29      12.562  90.665  56.726  1.00  0.00     0.408 P 
ATOM    702  OP1   C A  29      12.759  91.921  57.491  1.00  0.00    -0.624 OA
ATOM    703  OP2   C A  29      13.609  89.612  56.762  1.00  0.00    -0.624 OA
ATOM    704  O5'   C A  29      11.187  90.008  57.193  1.00  0.00    -0.287 OA
ATOM    705  C5'   C A  29       9.978  90.767  57.207  1.00  0.00     0.216 C 
ATOM    706  C4'   C A  29       8.786  89.848  57.340  1.00  0.00     0.180 C 
ATOM    707  O4'   C A  29       8.721  88.979  56.177  1.00  0.00    -0.353 OA
ATOM    708  C1'   C A  29       8.259  87.696  56.567  1.00  0.00     0.264 C 
ATOM    709  N1    C A  29       9.313  86.710  56.276  1.00  0.00    -0.278 N 
ATOM    710  C6    C A  29      10.619  87.094  56.151  1.00  0.00     0.102 A 
ATOM    711  C2    C A  29       8.956  85.367  56.133  1.00  0.00     0.352 A 
ATOM    712  O2    C A  29       7.765  85.045  56.248  1.00  0.00    -0.244 OA
ATOM    713  N3    C A  29       9.916  84.452  55.874  1.00  0.00    -0.177 NA
ATOM    714  C4    C A  29      11.187  84.836  55.753  1.00  0.00     0.128 A 
ATOM    715  N4    C A  29      12.096  83.897  55.497  1.00  0.00    -0.384 N 
ATOM    716  H41   C A  29      13.071  84.138  55.397  1.00  0.00     0.157 HD
ATOM    717  H42   C A  29      11.800  82.934  55.403  1.00  0.00     0.157 HD
ATOM    718  C5    C A  29      11.581  86.199  55.890  1.00  0.00     0.067 A 
ATOM    719  C2'   C A  29       7.893  87.773  58.049  1.00  0.00     0.199 C 
ATOM    720  O2'   C A  29       6.536  88.158  58.164  1.00  0.00    -0.388 OA
ATOM    721 'HO2   C A  29       6.508  88.891  58.780  1.00  0.00     0.210 HD
ATOM    722  C3'   C A  29       8.823  88.884  58.518  1.00  0.00     0.198 C 
ATOM    723  O3'   C A  29       8.377  89.499  59.724  1.00  0.00    -0.279 OA
ATOM    724  P     C A  30       8.874  88.927  61.142  1.00  0.00     0.408 P 
ATOM    725  OP1   C A  30       8.281  89.784  62.200  1.00  0.00    -0.624 OA
ATOM    726  OP2   C A  30      10.347  88.744  61.085  1.00  0.00    -0.624 OA
ATOM    727  O5'   C A  30       8.203  87.484  61.235  1.00  0.00    -0.287 OA
ATOM    728  C5'   C A  30       6.785  87.337  61.291  1.00  0.00     0.216 C 
ATOM    729  C4'   C A  30       6.416  85.878  61.435  1.00  0.00     0.180 C 
ATOM    730  O4'   C A  30       6.688  85.194  60.182  1.00  0.00    -0.353 OA
ATOM    731  C1'   C A  30       7.122  83.871  60.447  1.00  0.00     0.264 C 
ATOM    732  N1    C A  30       8.468  83.699  59.874  1.00  0.00    -0.278 N 
ATOM    733  C6    C A  30       9.305  84.768  59.715  1.00  0.00     0.102 A 
ATOM    734  C2    C A  30       8.878  82.420  59.495  1.00  0.00     0.352 A 
ATOM    735  O2    C A  30       8.099  81.468  59.648  1.00  0.00    -0.244 OA
ATOM    736  N3    C A  30      10.111  82.250  58.968  1.00  0.00    -0.177 NA
ATOM    737  C4    C A  30      10.920  83.299  58.813  1.00  0.00     0.128 A 
ATOM    738  N4    C A  30      12.124  83.083  58.289  1.00  0.00    -0.384 N 
ATOM    739  H41   C A  30      12.768  83.847  58.154  1.00  0.00     0.157 HD
ATOM    740  H42   C A  30      12.389  82.144  58.023  1.00  0.00     0.157 HD
ATOM    741  C5    C A  30      10.527  84.616  59.190  1.00  0.00     0.067 A 
ATOM    742  C2'   C A  30       7.071  83.662  61.960  1.00  0.00     0.199 C 
ATOM    743  O2'   C A  30       5.806  83.126  62.300  1.00  0.00    -0.388 OA
ATOM    744 'HO2   C A  30       5.333  83.813  62.770  1.00  0.00     0.210 HD
ATOM    745  C3'   C A  30       7.216  85.093  62.464  1.00  0.00     0.198 C 
ATOM    746  O3'   C A  30       6.697  85.263  63.779  1.00  0.00    -0.279 OA
ATOM    747  P     C A  31       7.640  84.994  65.054  1.00  0.00     0.408 P 
ATOM    748  OP1   C A  31       6.849  85.311  66.269  1.00  0.00    -0.624 OA
ATOM    749  OP2   C A  31       8.942  85.672  64.828  1.00  0.00    -0.624 OA
ATOM    750  O5'   C A  31       7.893  83.421  65.024  1.00  0.00    -0.287 OA
ATOM    751  C5'   C A  31       6.805  82.501  65.104  1.00  0.00     0.216 C 
ATOM    752  C4'   C A  31       7.316  81.080  65.022  1.00  0.00     0.180 C 
ATOM    753  O4'   C A  31       7.742  80.808  63.661  1.00  0.00    -0.353 OA
ATOM    754  C1'   C A  31       8.833  79.906  63.677  1.00  0.00     0.264 C 
ATOM    755  N1    C A  31       9.955  80.524  62.952  1.00  0.00    -0.278 N 
ATOM    756  C6    C A  31      10.152  81.876  62.987  1.00  0.00     0.102 A 
ATOM    757  C2    C A  31      10.823  79.703  62.226  1.00  0.00     0.352 A 
ATOM    758  O2    C A  31      10.620  78.479  62.209  1.00  0.00    -0.244 OA
ATOM    759  N3    C A  31      11.860  80.260  61.563  1.00  0.00    -0.177 NA
ATOM    760  C4    C A  31      12.043  81.580  61.600  1.00  0.00     0.128 A 
ATOM    761  N4    C A  31      13.077  82.083  60.929  1.00  0.00    -0.384 N 
ATOM    762  H41   C A  31      13.252  83.076  60.931  1.00  0.00     0.157 HD
ATOM    763  H42   C A  31      13.687  81.461  60.416  1.00  0.00     0.157 HD
ATOM    764  C5    C A  31      11.173  82.442  62.330  1.00  0.00     0.067 A 
ATOM    765  C2'   C A  31       9.154  79.578  65.138  1.00  0.00     0.198 C 
ATOM    766  O2'   C A  31       8.489  78.378  65.488  1.00  0.00    -0.388 OA
ATOM    767 'HO2   C A  31       8.151  78.495  66.377  1.00  0.00     0.210 HD
ATOM    768  C3'   C A  31       8.547  80.776  65.862  1.00  0.00     0.182 C 
ATOM    769  O3'   C A  31       8.212  80.479  67.223  1.00  0.00    -0.390 OA
ATOM    770 'HO3   C A  31       7.683  81.211  67.551  1.00  0.00     0.210 HD
ENDROOT
TORSDOF 244
ENDMDL
