REMARK  0 active torsions:
REMARK  status: ('A' for Active; 'I' for Inactive)
REMARK       I    between atoms: O5'_2  and  C5'_3 
REMARK       I    between atoms: C5'_3  and  C4'_4 
REMARK       I    between atoms: C1'_6  and  N9_7 
REMARK       I    between atoms: C2_10  and  N2_11 
REMARK       I    between atoms: C2'_21  and  O2'_22 
REMARK       I    between atoms: C3'_24  and  O3'_25 
REMARK       I    between atoms: O3'_25  and  P_26 
REMARK       I    between atoms: P_26  and  O5'_29 
REMARK       I    between atoms: O5'_29  and  C5'_30 
REMARK       I    between atoms: C5'_30  and  C4'_31 
REMARK       I    between atoms: C1'_33  and  N9_34 
REMARK       I    between atoms: C2_37  and  N2_38 
REMARK       I    between atoms: C2'_48  and  O2'_49 
REMARK       I    between atoms: C3'_51  and  O3'_52 
REMARK       I    between atoms: O3'_52  and  P_53 
REMARK       I    between atoms: P_53  and  O5'_56 
REMARK       I    between atoms: O5'_56  and  C5'_57 
REMARK       I    between atoms: C5'_57  and  C4'_58 
REMARK       I    between atoms: C1'_60  and  N9_61 
REMARK       I    between atoms: C2_64  and  N2_65 
REMARK       I    between atoms: C2'_75  and  O2'_76 
REMARK       I    between atoms: C3'_78  and  O3'_79 
REMARK       I    between atoms: O3'_79  and  P_80 
REMARK       I    between atoms: P_80  and  O5'_83 
REMARK       I    between atoms: O5'_83  and  C5'_84 
REMARK       I    between atoms: C5'_84  and  C4'_85 
REMARK       I    between atoms: C1'_87  and  N9_88 
REMARK       I    between atoms: C2_91  and  N2_92 
REMARK       I    between atoms: C2'_102  and  O2'_103 
REMARK       I    between atoms: C3'_105  and  O3'_106 
REMARK       I    between atoms: O3'_106  and  P_107 
REMARK       I    between atoms: P_107  and  O5'_110 
REMARK       I    between atoms: O5'_110  and  C5'_111 
REMARK       I    between atoms: C5'_111  and  C4'_112 
REMARK       I    between atoms: C1'_114  and  N9_115 
REMARK       I    between atoms: C2_118  and  N2_119 
REMARK       I    between atoms: C2'_129  and  O2'_130 
REMARK       I    between atoms: C3'_132  and  O3'_133 
REMARK       I    between atoms: O3'_133  and  P_134 
REMARK       I    between atoms: P_134  and  O5'_137 
REMARK       I    between atoms: O5'_137  and  C5'_138 
REMARK       I    between atoms: C5'_138  and  C4'_139 
REMARK       I    between atoms: C1'_141  and  N9_142 
REMARK       I    between atoms: C2_145  and  N2_146 
REMARK       I    between atoms: C2'_156  and  O2'_157 
REMARK       I    between atoms: C3'_159  and  O3'_160 
REMARK       I    between atoms: O3'_160  and  P_161 
REMARK       I    between atoms: P_161  and  O5'_164 
REMARK       I    between atoms: O5'_164  and  C5'_165 
REMARK       I    between atoms: C5'_165  and  C4'_166 
REMARK       I    between atoms: C1'_168  and  N9_169 
REMARK       I    between atoms: C2_172  and  N2_173 
REMARK       I    between atoms: C2'_183  and  O2'_184 
REMARK       I    between atoms: C3'_186  and  O3'_187 
REMARK       I    between atoms: O3'_187  and  P_188 
REMARK       I    between atoms: P_188  and  O5'_191 
REMARK       I    between atoms: O5'_191  and  C5'_192 
REMARK       I    between atoms: C5'_192  and  C4'_193 
REMARK       I    between atoms: C1'_195  and  N1_196 
REMARK       I    between atoms: C2'_205  and  O2'_206 
REMARK       I    between atoms: C3'_208  and  O3'_209 
REMARK       I    between atoms: O3'_209  and  P_210 
REMARK       I    between atoms: P_210  and  O5'_213 
REMARK       I    between atoms: O5'_213  and  C5'_214 
REMARK       I    between atoms: C5'_214  and  C4'_215 
REMARK       I    between atoms: C1'_217  and  N9_218 
REMARK       I    between atoms: C6_223  and  N6_224 
REMARK       I    between atoms: C2'_230  and  O2'_231 
REMARK       I    between atoms: C3'_233  and  O3'_234 
REMARK       I    between atoms: O3'_234  and  P_235 
REMARK       I    between atoms: P_235  and  O5'_238 
REMARK       I    between atoms: O5'_238  and  C5'_239 
REMARK       I    between atoms: C5'_239  and  C4'_240 
REMARK       I    between atoms: C1'_242  and  N9_243 
REMARK       I    between atoms: C2_246  and  N2_247 
REMARK       I    between atoms: C2'_257  and  O2'_258 
REMARK       I    between atoms: C3'_260  and  O3'_261 
REMARK       I    between atoms: O3'_261  and  P_262 
REMARK       I    between atoms: P_262  and  O5'_265 
REMARK       I    between atoms: O5'_265  and  C5'_266 
REMARK       I    between atoms: C5'_266  and  C4'_267 
REMARK       I    between atoms: C1'_269  and  N1_270 
REMARK       I    between atoms: C4_275  and  N4_276 
REMARK       I    between atoms: C2'_280  and  O2'_281 
REMARK       I    between atoms: C3'_283  and  O3'_284 
REMARK       I    between atoms: O3'_284  and  P_285 
REMARK       I    between atoms: P_285  and  O5'_288 
REMARK       I    between atoms: O5'_288  and  C5'_289 
REMARK       I    between atoms: C5'_289  and  C4'_290 
REMARK       I    between atoms: C1'_292  and  N1_293 
REMARK       I    between atoms: C4_298  and  N4_299 
REMARK       I    between atoms: C2'_303  and  O2'_304 
REMARK       I    between atoms: C3'_306  and  O3'_307 
REMARK       I    between atoms: O3'_307  and  P_308 
REMARK       I    between atoms: P_308  and  O5'_311 
REMARK       I    between atoms: O5'_311  and  C5'_312 
REMARK       I    between atoms: C5'_312  and  C4'_313 
REMARK       I    between atoms: C1'_315  and  N9_316 
REMARK       I    between atoms: C6_321  and  N6_322 
REMARK       I    between atoms: C2'_328  and  O2'_329 
REMARK       I    between atoms: C3'_331  and  O3'_332 
REMARK       I    between atoms: O3'_332  and  P_333 
REMARK       I    between atoms: P_333  and  O5'_336 
REMARK       I    between atoms: O5'_336  and  C5'_337 
REMARK       I    between atoms: C5'_337  and  C4'_338 
REMARK       I    between atoms: C1'_340  and  N9_341 
REMARK       I    between atoms: C6_346  and  N6_347 
REMARK       I    between atoms: C2'_353  and  O2'_354 
REMARK       I    between atoms: C3'_356  and  O3'_357 
REMARK       I    between atoms: O3'_357  and  P_358 
REMARK       I    between atoms: P_358  and  O5'_361 
REMARK       I    between atoms: O5'_361  and  C5'_362 
REMARK       I    between atoms: C5'_362  and  C4'_363 
REMARK       I    between atoms: C1'_365  and  N9_366 
REMARK       I    between atoms: C2_369  and  N2_370 
REMARK       I    between atoms: C2'_380  and  O2'_381 
REMARK       I    between atoms: C3'_383  and  O3'_384 
REMARK       I    between atoms: O3'_384  and  P_385 
REMARK       I    between atoms: P_385  and  O5'_388 
REMARK       I    between atoms: O5'_388  and  C5'_389 
REMARK       I    between atoms: C5'_389  and  C4'_390 
REMARK       I    between atoms: C1'_392  and  N1_393 
REMARK       I    between atoms: C2'_402  and  O2'_403 
REMARK       I    between atoms: C3'_405  and  O3'_406 
REMARK       I    between atoms: O3'_406  and  P_407 
REMARK       I    between atoms: P_407  and  O5'_410 
REMARK       I    between atoms: O5'_410  and  C5'_411 
REMARK       I    between atoms: C5'_411  and  C4'_412 
REMARK       I    between atoms: C1'_414  and  N9_415 
REMARK       I    between atoms: C2_418  and  N2_419 
REMARK       I    between atoms: C2'_429  and  O2'_430 
REMARK       I    between atoms: C3'_432  and  O3'_433 
REMARK       I    between atoms: O3'_433  and  P_434 
REMARK       I    between atoms: P_434  and  O5'_437 
REMARK       I    between atoms: O5'_437  and  C5'_438 
REMARK       I    between atoms: C5'_438  and  C4'_439 
REMARK       I    between atoms: C1'_441  and  N9_442 
REMARK       I    between atoms: C2_445  and  N2_446 
REMARK       I    between atoms: C2'_456  and  O2'_457 
REMARK       I    between atoms: C3'_459  and  O3'_460 
REMARK       I    between atoms: O3'_460  and  P_461 
REMARK       I    between atoms: P_461  and  O5'_464 
REMARK       I    between atoms: O5'_464  and  C5'_465 
REMARK       I    between atoms: C5'_465  and  C4'_466 
REMARK       I    between atoms: C1'_468  and  N1_469 
REMARK       I    between atoms: C4_474  and  N4_475 
REMARK       I    between atoms: C2'_479  and  O2'_480 
REMARK       I    between atoms: C3'_482  and  O3'_483 
REMARK       I    between atoms: O3'_483  and  P_484 
REMARK       I    between atoms: P_484  and  O5'_487 
REMARK       I    between atoms: O5'_487  and  C5'_488 
REMARK       I    between atoms: C5'_488  and  C4'_489 
REMARK       I    between atoms: C1'_491  and  N1_492 
REMARK       I    between atoms: C4_497  and  N4_498 
REMARK       I    between atoms: C2'_502  and  O2'_503 
REMARK       I    between atoms: C3'_505  and  O3'_506 
REMARK       I    between atoms: O3'_506  and  P_507 
REMARK       I    between atoms: P_507  and  O5'_510 
REMARK       I    between atoms: O5'_510  and  C5'_511 
REMARK       I    between atoms: C5'_511  and  C4'_512 
REMARK       I    between atoms: C1'_514  and  N9_515 
REMARK       I    between atoms: C6_520  and  N6_521 
REMARK       I    between atoms: C2'_527  and  O2'_528 
REMARK       I    between atoms: C3'_530  and  O3'_531 
REMARK       I    between atoms: O3'_531  and  P_532 
REMARK       I    between atoms: P_532  and  O5'_535 
REMARK       I    between atoms: O5'_535  and  C5'_536 
REMARK       I    between atoms: C5'_536  and  C4'_537 
REMARK       I    between atoms: C1'_539  and  N9_540 
REMARK       I    between atoms: C6_545  and  N6_546 
REMARK       I    between atoms: C2'_552  and  O2'_553 
REMARK       I    between atoms: C3'_555  and  O3'_556 
REMARK       I    between atoms: O3'_556  and  P_557 
REMARK       I    between atoms: P_557  and  O5'_560 
REMARK       I    between atoms: O5'_560  and  C5'_561 
REMARK       I    between atoms: C5'_561  and  C4'_562 
REMARK       I    between atoms: C1'_564  and  N9_565 
REMARK       I    between atoms: C6_570  and  N6_571 
REMARK       I    between atoms: C2'_577  and  O2'_578 
REMARK       I    between atoms: C3'_580  and  O3'_581 
REMARK       I    between atoms: O3'_581  and  P_582 
REMARK       I    between atoms: P_582  and  O5'_585 
REMARK       I    between atoms: O5'_585  and  C5'_586 
REMARK       I    between atoms: C5'_586  and  C4'_587 
REMARK       I    between atoms: C1'_589  and  N9_590 
REMARK       I    between atoms: C2_593  and  N2_594 
REMARK       I    between atoms: C2'_604  and  O2'_605 
REMARK       I    between atoms: C3'_607  and  O3'_608 
REMARK       I    between atoms: O3'_608  and  P_609 
REMARK       I    between atoms: P_609  and  O5'_612 
REMARK       I    between atoms: O5'_612  and  C5'_613 
REMARK       I    between atoms: C5'_613  and  C4'_614 
REMARK       I    between atoms: C1'_616  and  N1_617 
REMARK       I    between atoms: C4_622  and  N4_623 
REMARK       I    between atoms: C2'_627  and  O2'_628 
REMARK       I    between atoms: C3'_630  and  O3'_631 
REMARK       I    between atoms: O3'_631  and  P_632 
REMARK       I    between atoms: P_632  and  O5'_635 
REMARK       I    between atoms: O5'_635  and  C5'_636 
REMARK       I    between atoms: C5'_636  and  C4'_637 
REMARK       I    between atoms: C1'_639  and  N1_640 
REMARK       I    between atoms: C4_645  and  N4_646 
REMARK       I    between atoms: C2'_650  and  O2'_651 
REMARK       I    between atoms: C3'_653  and  O3'_654 
REMARK       I    between atoms: O3'_654  and  P_655 
REMARK       I    between atoms: P_655  and  O5'_658 
REMARK       I    between atoms: O5'_658  and  C5'_659 
REMARK       I    between atoms: C5'_659  and  C4'_660 
REMARK       I    between atoms: C1'_662  and  N1_663 
REMARK       I    between atoms: C4_668  and  N4_669 
REMARK       I    between atoms: C2'_673  and  O2'_674 
REMARK       I    between atoms: C3'_676  and  O3'_677 
REMARK       I    between atoms: O3'_677  and  P_678 
REMARK       I    between atoms: P_678  and  O5'_681 
REMARK       I    between atoms: O5'_681  and  C5'_682 
REMARK       I    between atoms: C5'_682  and  C4'_683 
REMARK       I    between atoms: C1'_685  and  N1_686 
REMARK       I    between atoms: C4_691  and  N4_692 
REMARK       I    between atoms: C2'_696  and  O2'_697 
REMARK       I    between atoms: C3'_699  and  O3'_700 
REMARK       I    between atoms: O3'_700  and  P_701 
REMARK       I    between atoms: P_701  and  O5'_704 
REMARK       I    between atoms: O5'_704  and  C5'_705 
REMARK       I    between atoms: C5'_705  and  C4'_706 
REMARK       I    between atoms: C1'_708  and  N1_709 
REMARK       I    between atoms: C4_714  and  N4_715 
REMARK       I    between atoms: C2'_719  and  O2'_720 
REMARK       I    between atoms: C3'_722  and  O3'_723 
REMARK       I    between atoms: O3'_723  and  P_724 
REMARK       I    between atoms: P_724  and  O5'_727 
REMARK       I    between atoms: O5'_727  and  C5'_728 
REMARK       I    between atoms: C5'_728  and  C4'_729 
REMARK       I    between atoms: C1'_731  and  N1_732 
REMARK       I    between atoms: C4_737  and  N4_738 
REMARK       I    between atoms: C2'_742  and  O2'_743 
REMARK       I    between atoms: C3'_745  and  O3'_746 
REMARK       I    between atoms: O3'_746  and  P_747 
REMARK       I    between atoms: P_747  and  O5'_750 
REMARK       I    between atoms: O5'_750  and  C5'_751 
REMARK       I    between atoms: C5'_751  and  C4'_752 
REMARK       I    between atoms: C1'_754  and  N1_755 
REMARK       I    between atoms: C4_760  and  N4_761 
REMARK       I    between atoms: C2'_765  and  O2'_766 
REMARK       I    between atoms: C3'_768  and  O3'_769 
ROOT
ATOM      1 'HO5   G A   1      -0.244   0.370   0.221  1.00  0.00     0.209 HD
ATOM      2  O5'   G A   1       0.281   0.291  -0.579  1.00  0.00    -0.398 OA
ATOM      3  C5'   G A   1       1.655   0.232  -0.181  1.00  0.00     0.198 C 
ATOM      4  C4'   G A   1       1.777   0.043   1.314  1.00  0.00     0.180 C 
ATOM      5  O4'   G A   1       1.438   1.296   1.972  1.00  0.00    -0.353 OA
ATOM      6  C1'   G A   1       0.583   1.044   3.072  1.00  0.00     0.262 C 
ATOM      7  N9    G A   1      -0.745   1.556   2.748  1.00  0.00    -0.293 N 
ATOM      8  C4    G A   1      -1.841   1.575   3.578  1.00  0.00     0.187 A 
ATOM      9  N3    G A   1      -1.882   1.120   4.848  1.00  0.00    -0.044 NA
ATOM     10  C2    G A   1      -3.078   1.276   5.388  1.00  0.00     0.703 A 
ATOM     11  N2    G A   1      -3.295   0.878   6.644  1.00  0.00    -0.233 N 
ATOM     12  H21   G A   1      -2.541   0.459   7.168  1.00  0.00     0.174 HD
ATOM     13  H22   G A   1      -4.207   0.990   7.063  1.00  0.00     0.174 HD
ATOM     14  N1    G A   1      -4.148   1.834   4.738  1.00  0.00    -0.153 N 
ATOM     15  H1    G A   1      -5.018   1.908   5.243  1.00  0.00     0.187 HD
ATOM     16  C6    G A   1      -4.130   2.309   3.432  1.00  0.00     0.292 A 
ATOM     17  O6    G A   1      -5.155   2.795   2.941  1.00  0.00    -0.265 OA
ATOM     18  C5    G A   1      -2.852   2.147   2.836  1.00  0.00     0.173 A 
ATOM     19  N7    G A   1      -2.403   2.482   1.565  1.00  0.00    -0.234 NA
ATOM     20  C8    G A   1      -1.151   2.113   1.560  1.00  0.00     0.214 A 
ATOM     21  C2'   G A   1       0.620  -0.461   3.331  1.00  0.00     0.199 C 
ATOM     22  O2'   G A   1       1.726  -0.750   4.166  1.00  0.00    -0.388 OA
ATOM     23 'HO2   G A   1       1.474  -1.494   4.713  1.00  0.00     0.210 HD
ATOM     24  C3'   G A   1       0.834  -0.991   1.918  1.00  0.00     0.198 C 
ATOM     25  O3'   G A   1       1.411  -2.295   1.902  1.00  0.00    -0.279 OA
ATOM     26  P     G A   2       0.486  -3.577   1.605  1.00  0.00     0.408 P 
ATOM     27  OP1   G A   2       1.388  -4.748   1.458  1.00  0.00    -0.624 OA
ATOM     28  OP2   G A   2      -0.455  -3.235   0.508  1.00  0.00    -0.624 OA
ATOM     29  O5'   G A   2      -0.357  -3.763   2.944  1.00  0.00    -0.287 OA
ATOM     30  C5'   G A   2       0.264  -4.216   4.145  1.00  0.00     0.216 C 
ATOM     31  C4'   G A   2      -0.681  -4.059   5.313  1.00  0.00     0.180 C 
ATOM     32  O4'   G A   2      -1.130  -2.679   5.381  1.00  0.00    -0.353 OA
ATOM     33  C1'   G A   2      -2.469  -2.639   5.845  1.00  0.00     0.262 C 
ATOM     34  N9    G A   2      -3.293  -1.985   4.832  1.00  0.00    -0.293 N 
ATOM     35  C4    G A   2      -4.608  -1.615   4.969  1.00  0.00     0.187 A 
ATOM     36  N3    G A   2      -5.374  -1.801   6.063  1.00  0.00    -0.044 NA
ATOM     37  C2    G A   2      -6.598  -1.337   5.893  1.00  0.00     0.703 A 
ATOM     38  N2    G A   2      -7.491  -1.447   6.879  1.00  0.00    -0.233 N 
ATOM     39  H21   G A   2      -7.215  -1.885   7.746  1.00  0.00     0.174 HD
ATOM     40  H22   G A   2      -8.433  -1.103   6.759  1.00  0.00     0.174 HD
ATOM     41  N1    G A   2      -7.038  -0.734   4.743  1.00  0.00    -0.153 N 
ATOM     42  H1    G A   2      -7.993  -0.412   4.718  1.00  0.00     0.187 HD
ATOM     43  C6    G A   2      -6.269  -0.530   3.603  1.00  0.00     0.292 A 
ATOM     44  O6    G A   2      -6.766   0.030   2.619  1.00  0.00    -0.265 OA
ATOM     45  C5    G A   2      -4.949  -1.027   3.769  1.00  0.00     0.173 A 
ATOM     46  N7    G A   2      -3.872  -1.033   2.893  1.00  0.00    -0.234 NA
ATOM     47  C8    G A   2      -2.916  -1.613   3.565  1.00  0.00     0.214 A 
ATOM     48  C2'   G A   2      -2.898  -4.075   6.146  1.00  0.00     0.199 C 
ATOM     49  O2'   G A   2      -2.625  -4.352   7.508  1.00  0.00    -0.388 OA
ATOM     50 'HO2   G A   2      -2.321  -5.258   7.548  1.00  0.00     0.210 HD
ATOM     51  C3'   G A   2      -1.972  -4.859   5.226  1.00  0.00     0.198 C 
ATOM     52  O3'   G A   2      -1.794  -6.207   5.653  1.00  0.00    -0.279 OA
ATOM     53  P     G A   3      -2.754  -7.362   5.073  1.00  0.00     0.408 P 
ATOM     54  OP1   G A   3      -2.357  -8.636   5.725  1.00  0.00    -0.624 OA
ATOM     55  OP2   G A   3      -2.757  -7.267   3.591  1.00  0.00    -0.624 OA
ATOM     56  O5'   G A   3      -4.203  -6.963   5.603  1.00  0.00    -0.287 OA
ATOM     57  C5'   G A   3      -4.488  -6.917   7.000  1.00  0.00     0.216 C 
ATOM     58  C4'   G A   3      -5.979  -7.022   7.235  1.00  0.00     0.180 C 
ATOM     59  O4'   G A   3      -6.548  -5.684   7.285  1.00  0.00    -0.353 OA
ATOM     60  C1'   G A   3      -7.819  -5.682   6.655  1.00  0.00     0.262 C 
ATOM     61  N9    G A   3      -7.747  -4.831   5.471  1.00  0.00    -0.293 N 
ATOM     62  C4    G A   3      -8.803  -4.223   4.836  1.00  0.00     0.187 A 
ATOM     63  N3    G A   3     -10.100  -4.303   5.200  1.00  0.00    -0.044 NA
ATOM     64  C2    G A   3     -10.882  -3.611   4.392  1.00  0.00     0.703 A 
ATOM     65  N2    G A   3     -12.199  -3.580   4.607  1.00  0.00    -0.233 N 
ATOM     66  H21   G A   3     -12.584  -4.089   5.389  1.00  0.00     0.174 HD
ATOM     67  H22   G A   3     -12.803  -3.051   3.994  1.00  0.00     0.174 HD
ATOM     68  N1    G A   3     -10.431  -2.896   3.312  1.00  0.00    -0.153 N 
ATOM     69  H1    G A   3     -11.113  -2.404   2.759  1.00  0.00     0.187 HD
ATOM     70  C6    G A   3      -9.102  -2.797   2.918  1.00  0.00     0.292 A 
ATOM     71  O6    G A   3      -8.804  -2.121   1.927  1.00  0.00    -0.265 OA
ATOM     72  C5    G A   3      -8.247  -3.537   3.777  1.00  0.00     0.173 A 
ATOM     73  N7    G A   3      -6.870  -3.708   3.747  1.00  0.00    -0.234 NA
ATOM     74  C8    G A   3      -6.621  -4.481   4.768  1.00  0.00     0.214 A 
ATOM     75  C2'   G A   3      -8.166  -7.135   6.337  1.00  0.00     0.199 C 
ATOM     76  O2'   G A   3      -8.813  -7.706   7.460  1.00  0.00    -0.388 OA
ATOM     77 'HO2   G A   3      -8.421  -8.570   7.590  1.00  0.00     0.210 HD
ATOM     78  C3'   G A   3      -6.775  -7.724   6.144  1.00  0.00     0.198 C 
ATOM     79  O3'   G A   3      -6.753  -9.141   6.298  1.00  0.00    -0.279 OA
ATOM     80  P     G A   4      -7.015 -10.086   5.023  1.00  0.00     0.408 P 
ATOM     81  OP1   G A   4      -6.878 -11.492   5.482  1.00  0.00    -0.624 OA
ATOM     82  OP2   G A   4      -6.182  -9.599   3.895  1.00  0.00    -0.624 OA
ATOM     83  O5'   G A   4      -8.546  -9.830   4.662  1.00  0.00    -0.287 OA
ATOM     84  C5'   G A   4      -9.584 -10.169   5.580  1.00  0.00     0.216 C 
ATOM     85  C4'   G A   4     -10.932  -9.808   5.003  1.00  0.00     0.180 C 
ATOM     86  O4'   G A   4     -11.039  -8.364   4.904  1.00  0.00    -0.353 OA
ATOM     87  C1'   G A   4     -11.834  -8.025   3.781  1.00  0.00     0.262 C 
ATOM     88  N9    G A   4     -11.054  -7.155   2.906  1.00  0.00    -0.293 N 
ATOM     89  C4    G A   4     -11.551  -6.315   1.942  1.00  0.00     0.187 A 
ATOM     90  N3    G A   4     -12.853  -6.150   1.629  1.00  0.00    -0.044 NA
ATOM     91  C2    G A   4     -13.019  -5.273   0.657  1.00  0.00     0.703 A 
ATOM     92  N2    G A   4     -14.249  -4.996   0.218  1.00  0.00    -0.233 N 
ATOM     93  H21   G A   4     -15.039  -5.463   0.640  1.00  0.00     0.174 HD
ATOM     94  H22   G A   4     -14.389  -4.329  -0.528  1.00  0.00     0.174 HD
ATOM     95  N1    G A   4     -11.992  -4.606   0.041  1.00  0.00    -0.153 N 
ATOM     96  H1    G A   4     -12.230  -3.954  -0.690  1.00  0.00     0.187 HD
ATOM     97  C6    G A   4     -10.645  -4.756   0.346  1.00  0.00     0.292 A 
ATOM     98  O6    G A   4      -9.799  -4.100  -0.271  1.00  0.00    -0.265 OA
ATOM     99  C5    G A   4     -10.448  -5.700   1.387  1.00  0.00     0.173 A 
ATOM    100  N7    G A   4      -9.280  -6.147   1.989  1.00  0.00    -0.234 NA
ATOM    101  C8    G A   4      -9.688  -7.009   2.880  1.00  0.00     0.214 A 
ATOM    102  C2'   G A   4     -12.276  -9.327   3.111  1.00  0.00     0.199 C 
ATOM    103  O2'   G A   4     -13.543  -9.692   3.627  1.00  0.00    -0.388 OA
ATOM    104 'HO2   G A   4     -13.482 -10.614   3.874  1.00  0.00     0.210 HD
ATOM    105  C3'   G A   4     -11.192 -10.288   3.584  1.00  0.00     0.198 C 
ATOM    106  O3'   G A   4     -11.618 -11.648   3.556  1.00  0.00    -0.279 OA
ATOM    107  P     G A   5     -11.419 -12.519   2.218  1.00  0.00     0.408 P 
ATOM    108  OP1   G A   5     -12.098 -13.821   2.435  1.00  0.00    -0.624 OA
ATOM    109  OP2   G A   5      -9.979 -12.495   1.853  1.00  0.00    -0.624 OA
ATOM    110  O5'   G A   5     -12.231 -11.715   1.108  1.00  0.00    -0.287 OA
ATOM    111  C5'   G A   5     -13.652 -11.607   1.170  1.00  0.00     0.216 C 
ATOM    112  C4'   G A   5     -14.177 -10.908  -0.062  1.00  0.00     0.180 C 
ATOM    113  O4'   G A   5     -13.778  -9.516  -0.026  1.00  0.00    -0.353 OA
ATOM    114  C1'   G A   5     -13.638  -9.032  -1.349  1.00  0.00     0.262 C 
ATOM    115  N9    G A   5     -12.340  -8.373  -1.463  1.00  0.00    -0.293 N 
ATOM    116  C4    G A   5     -11.996  -7.403  -2.372  1.00  0.00     0.187 A 
ATOM    117  N3    G A   5     -12.802  -6.882  -3.320  1.00  0.00    -0.044 NA
ATOM    118  C2    G A   5     -12.184  -5.970  -4.047  1.00  0.00     0.703 A 
ATOM    119  N2    G A   5     -12.838  -5.352  -5.033  1.00  0.00    -0.233 N 
ATOM    120  H21   G A   5     -13.802  -5.588  -5.214  1.00  0.00     0.174 HD
ATOM    121  H22   G A   5     -12.368  -4.659  -5.599  1.00  0.00     0.174 HD
ATOM    122  N1    G A   5     -10.879  -5.595  -3.862  1.00  0.00    -0.153 N 
ATOM    123  H1    G A   5     -10.502  -4.889  -4.475  1.00  0.00     0.187 HD
ATOM    124  C6    G A   5     -10.029  -6.113  -2.892  1.00  0.00     0.292 A 
ATOM    125  O6    G A   5      -8.866  -5.699  -2.810  1.00  0.00    -0.265 OA
ATOM    126  C5    G A   5     -10.678  -7.098  -2.101  1.00  0.00     0.173 A 
ATOM    127  N7    G A   5     -10.205  -7.858  -1.039  1.00  0.00    -0.234 NA
ATOM    128  C8    G A   5     -11.224  -8.596  -0.694  1.00  0.00     0.214 A 
ATOM    129  C2'   G A   5     -13.811 -10.210  -2.313  1.00  0.00     0.199 C 
ATOM    130  O2'   G A   5     -15.124 -10.166  -2.840  1.00  0.00    -0.388 OA
ATOM    131 'HO2   G A   5     -15.040 -10.192  -3.794  1.00  0.00     0.210 HD
ATOM    132  C3'   G A   5     -13.623 -11.411  -1.386  1.00  0.00     0.198 C 
ATOM    133  O3'   G A   5     -14.330 -12.566  -1.832  1.00  0.00    -0.279 OA
ATOM    134  P     G A   6     -13.814 -13.372  -3.125  1.00  0.00     0.408 P 
ATOM    135  OP1   G A   6     -14.666 -14.582  -3.255  1.00  0.00    -0.624 OA
ATOM    136  OP2   G A   6     -12.339 -13.522  -3.030  1.00  0.00    -0.624 OA
ATOM    137  O5'   G A   6     -14.153 -12.404  -4.345  1.00  0.00    -0.287 OA
ATOM    138  C5'   G A   6     -13.179 -12.107  -5.345  1.00  0.00     0.216 C 
ATOM    139  C4'   G A   6     -13.647 -10.950  -6.196  1.00  0.00     0.180 C 
ATOM    140  O4'   G A   6     -13.397  -9.711  -5.476  1.00  0.00    -0.353 OA
ATOM    141  C1'   G A   6     -12.888  -8.734  -6.366  1.00  0.00     0.262 C 
ATOM    142  N9    G A   6     -11.502  -8.453  -6.000  1.00  0.00    -0.293 N 
ATOM    143  C4    G A   6     -10.649  -7.587  -6.640  1.00  0.00     0.187 A 
ATOM    144  N3    G A   6     -10.945  -6.838  -7.722  1.00  0.00    -0.044 NA
ATOM    145  C2    G A   6      -9.917  -6.106  -8.110  1.00  0.00     0.703 A 
ATOM    146  N2    G A   6     -10.036  -5.304  -9.172  1.00  0.00    -0.233 N 
ATOM    147  H21   G A   6     -10.914  -5.266  -9.669  1.00  0.00     0.174 HD
ATOM    148  H22   G A   6      -9.252  -4.746  -9.479  1.00  0.00     0.174 HD
ATOM    149  N1    G A   6      -8.697  -6.105  -7.487  1.00  0.00    -0.153 N 
ATOM    150  H1    G A   6      -7.980  -5.507  -7.868  1.00  0.00     0.187 HD
ATOM    151  C6    G A   6      -8.368  -6.864  -6.371  1.00  0.00     0.292 A 
ATOM    152  O6    G A   6      -7.233  -6.783  -5.885  1.00  0.00    -0.265 OA
ATOM    153  C5    G A   6      -9.462  -7.660  -5.942  1.00  0.00     0.173 A 
ATOM    154  N7    G A   6      -9.567  -8.554  -4.884  1.00  0.00    -0.234 NA
ATOM    155  C8    G A   6     -10.791  -8.998  -4.959  1.00  0.00     0.214 A 
ATOM    156  C2'   G A   6     -13.048  -9.285  -7.782  1.00  0.00     0.199 C 
ATOM    157  O2'   G A   6     -14.340  -8.950  -8.254  1.00  0.00    -0.388 OA
ATOM    158 'HO2   G A   6     -14.587  -9.630  -8.881  1.00  0.00     0.210 HD
ATOM    159  C3'   G A   6     -12.923 -10.782  -7.526  1.00  0.00     0.198 C 
ATOM    160  O3'   G A   6     -13.524 -11.562  -8.557  1.00  0.00    -0.279 OA
ATOM    161  P     G A   7     -12.611 -12.175  -9.732  1.00  0.00     0.408 P 
ATOM    162  OP1   G A   7     -13.499 -12.996 -10.596  1.00  0.00    -0.624 OA
ATOM    163  OP2   G A   7     -11.408 -12.794  -9.120  1.00  0.00    -0.624 OA
ATOM    164  O5'   G A   7     -12.147 -10.900 -10.568  1.00  0.00    -0.287 OA
ATOM    165  C5'   G A   7     -13.088 -10.122 -11.307  1.00  0.00     0.216 C 
ATOM    166  C4'   G A   7     -12.386  -8.988 -12.018  1.00  0.00     0.180 C 
ATOM    167  O4'   G A   7     -11.716  -8.156 -11.036  1.00  0.00    -0.353 OA
ATOM    168  C1'   G A   7     -10.512  -7.649 -11.583  1.00  0.00     0.262 C 
ATOM    169  N9    G A   7      -9.406  -8.063 -10.725  1.00  0.00    -0.293 N 
ATOM    170  C4    G A   7      -8.116  -7.594 -10.774  1.00  0.00     0.187 A 
ATOM    171  N3    G A   7      -7.642  -6.668 -11.633  1.00  0.00    -0.044 NA
ATOM    172  C2    G A   7      -6.361  -6.420 -11.432  1.00  0.00     0.703 A 
ATOM    173  N2    G A   7      -5.732  -5.525 -12.197  1.00  0.00    -0.233 N 
ATOM    174  H21   G A   7      -6.246  -5.047 -12.923  1.00  0.00     0.174 HD
ATOM    175  H22   G A   7      -4.753  -5.327 -12.049  1.00  0.00     0.174 HD
ATOM    176  N1    G A   7      -5.603  -7.030 -10.467  1.00  0.00    -0.153 N 
ATOM    177  H1    G A   7      -4.632  -6.766 -10.400  1.00  0.00     0.187 HD
ATOM    178  C6    G A   7      -6.066  -7.986  -9.571  1.00  0.00     0.292 A 
ATOM    179  O6    G A   7      -5.293  -8.473  -8.738  1.00  0.00    -0.265 OA
ATOM    180  C5    G A   7      -7.444  -8.265  -9.773  1.00  0.00     0.173 A 
ATOM    181  N7    G A   7      -8.294  -9.141  -9.111  1.00  0.00    -0.234 NA
ATOM    182  C8    G A   7      -9.443  -8.988  -9.710  1.00  0.00     0.214 A 
ATOM    183  C2'   G A   7     -10.398  -8.157 -13.022  1.00  0.00     0.199 C 
ATOM    184  O2'   G A   7     -10.938  -7.177 -13.889  1.00  0.00    -0.388 OA
ATOM    185 'HO2   G A   7     -11.102  -7.607 -14.729  1.00  0.00     0.210 HD
ATOM    186  C3'   G A   7     -11.280  -9.400 -12.978  1.00  0.00     0.198 C 
ATOM    187  O3'   G A   7     -11.802  -9.741 -14.259  1.00  0.00    -0.279 OA
ATOM    188  P     U A   8     -11.025 -10.804 -15.183  1.00  0.00     0.408 P 
ATOM    189  OP1   U A   8     -11.748 -10.878 -16.477  1.00  0.00    -0.624 OA
ATOM    190  OP2   U A   8     -10.806 -12.043 -14.393  1.00  0.00    -0.624 OA
ATOM    191  O5'   U A   8      -9.607 -10.125 -15.445  1.00  0.00    -0.287 OA
ATOM    192  C5'   U A   8      -9.466  -9.047 -16.369  1.00  0.00     0.216 C 
ATOM    193  C4'   U A   8      -8.026  -8.597 -16.429  1.00  0.00     0.180 C 
ATOM    194  O4'   U A   8      -7.634  -8.101 -15.119  1.00  0.00    -0.353 OA
ATOM    195  C1'   U A   8      -6.320  -8.533 -14.816  1.00  0.00     0.264 C 
ATOM    196  N1    U A   8      -6.384  -9.442 -13.662  1.00  0.00    -0.280 N 
ATOM    197  C6    U A   8      -7.500 -10.209 -13.416  1.00  0.00     0.104 A 
ATOM    198  C2    U A   8      -5.281  -9.503 -12.831  1.00  0.00     0.331 A 
ATOM    199  O2    U A   8      -4.277  -8.837 -13.015  1.00  0.00    -0.246 OA
ATOM    200  N3    U A   8      -5.397 -10.372 -11.777  1.00  0.00    -0.275 N 
ATOM    201  H3    U A   8      -4.611 -10.435 -11.149  1.00  0.00     0.173 HD
ATOM    202  C4    U A   8      -6.479 -11.167 -11.474  1.00  0.00     0.250 A 
ATOM    203  O4    U A   8      -6.424 -11.912 -10.496  1.00  0.00    -0.268 OA
ATOM    204  C5    U A   8      -7.579 -11.044 -12.376  1.00  0.00     0.092 A 
ATOM    205  C2'   U A   8      -5.749  -9.184 -16.075  1.00  0.00     0.199 C 
ATOM    206  O2'   U A   8      -5.118  -8.187 -16.856  1.00  0.00    -0.388 OA
ATOM    207 'HO2   U A   8      -5.468  -8.274 -17.743  1.00  0.00     0.210 HD
ATOM    208  C3'   U A   8      -7.018  -9.692 -16.747  1.00  0.00     0.198 C 
ATOM    209  O3'   U A   8      -6.861  -9.863 -18.153  1.00  0.00    -0.279 OA
ATOM    210  P     A A   9      -6.224 -11.224 -18.726  1.00  0.00     0.408 P 
ATOM    211  OP1   A A   9      -6.390 -11.204 -20.201  1.00  0.00    -0.624 OA
ATOM    212  OP2   A A   9      -6.767 -12.362 -17.942  1.00  0.00    -0.624 OA
ATOM    213  O5'   A A   9      -4.671 -11.088 -18.393  1.00  0.00    -0.287 OA
ATOM    214  C5'   A A   9      -3.841 -10.168 -19.102  1.00  0.00     0.216 C 
ATOM    215  C4'   A A   9      -2.396 -10.598 -19.013  1.00  0.00     0.180 C 
ATOM    216  O4'   A A   9      -1.813 -10.040 -17.798  1.00  0.00    -0.353 OA
ATOM    217  C1'   A A   9      -1.034 -11.029 -17.144  1.00  0.00     0.262 C 
ATOM    218  N9    A A   9      -1.732 -11.435 -15.923  1.00  0.00    -0.294 N 
ATOM    219  C4    A A   9      -1.174 -11.587 -14.677  1.00  0.00     0.167 A 
ATOM    220  N3    A A   9       0.110 -11.394 -14.327  1.00  0.00    -0.222 NA
ATOM    221  C2    A A   9       0.285 -11.638 -13.030  1.00  0.00     0.237 A 
ATOM    222  N1    A A   9      -0.611 -12.024 -12.113  1.00  0.00    -0.222 NA
ATOM    223  C6    A A   9      -1.891 -12.209 -12.497  1.00  0.00     0.155 A 
ATOM    224  N6    A A   9      -2.781 -12.594 -11.582  1.00  0.00    -0.382 N 
ATOM    225  H61   A A   9      -3.745 -12.740 -11.842  1.00  0.00     0.157 HD
ATOM    226  H62   A A   9      -2.486 -12.732 -10.627  1.00  0.00     0.157 HD
ATOM    227  C5    A A   9      -2.207 -11.983 -13.847  1.00  0.00     0.149 A 
ATOM    228  N7    A A   9      -3.397 -12.078 -14.556  1.00  0.00    -0.236 NA
ATOM    229  C8    A A   9      -3.063 -11.744 -15.778  1.00  0.00     0.214 A 
ATOM    230  C2'   A A   9      -0.836 -12.158 -18.151  1.00  0.00     0.199 C 
ATOM    231  O2'   A A   9       0.278 -11.803 -18.948  1.00  0.00    -0.388 OA
ATOM    232 'HO2   A A   9       0.078 -10.961 -19.356  1.00  0.00     0.210 HD
ATOM    233  C3'   A A   9      -2.170 -12.100 -18.888  1.00  0.00     0.198 C 
ATOM    234  O3'   A A   9      -2.224 -12.767 -20.159  1.00  0.00    -0.279 OA
ATOM    235  P     G A  10      -1.025 -12.622 -21.227  1.00  0.00     0.408 P 
ATOM    236  OP1   G A  10      -0.473 -11.243 -21.172  1.00  0.00    -0.624 OA
ATOM    237  OP2   G A  10      -1.537 -13.146 -22.519  1.00  0.00    -0.624 OA
ATOM    238  O5'   G A  10       0.082 -13.644 -20.705  1.00  0.00    -0.287 OA
ATOM    239  C5'   G A  10      -0.281 -14.943 -20.239  1.00  0.00     0.216 C 
ATOM    240  C4'   G A  10       0.608 -15.351 -19.087  1.00  0.00     0.180 C 
ATOM    241  O4'   G A  10       0.140 -14.700 -17.874  1.00  0.00    -0.353 OA
ATOM    242  C1'   G A  10       0.256 -15.590 -16.778  1.00  0.00     0.262 C 
ATOM    243  N9    G A  10      -1.083 -15.883 -16.277  1.00  0.00    -0.293 N 
ATOM    244  C4    G A  10      -1.432 -16.117 -14.970  1.00  0.00     0.187 A 
ATOM    245  N3    G A  10      -0.597 -16.101 -13.911  1.00  0.00    -0.044 NA
ATOM    246  C2    G A  10      -1.225 -16.374 -12.783  1.00  0.00     0.703 A 
ATOM    247  N2    G A  10      -0.544 -16.396 -11.633  1.00  0.00    -0.233 N 
ATOM    248  H21   G A  10       0.446 -16.202 -11.644  1.00  0.00     0.174 HD
ATOM    249  H22   G A  10      -1.013 -16.612 -10.765  1.00  0.00     0.174 HD
ATOM    250  N1    G A  10      -2.566 -16.644 -12.697  1.00  0.00    -0.153 N 
ATOM    251  H1    G A  10      -2.944 -16.845 -11.783  1.00  0.00     0.187 HD
ATOM    252  C6    G A  10      -3.448 -16.664 -13.772  1.00  0.00     0.292 A 
ATOM    253  O6    G A  10      -4.643 -16.918 -13.582  1.00  0.00    -0.265 OA
ATOM    254  C5    G A  10      -2.788 -16.371 -14.993  1.00  0.00     0.173 A 
ATOM    255  N7    G A  10      -3.283 -16.289 -16.288  1.00  0.00    -0.234 NA
ATOM    256  C8    G A  10      -2.238 -15.994 -17.012  1.00  0.00     0.214 A 
ATOM    257  C2'   G A  10       1.001 -16.828 -17.275  1.00  0.00     0.199 C 
ATOM    258  O2'   G A  10       2.393 -16.615 -17.127  1.00  0.00    -0.388 OA
ATOM    259 'HO2   G A  10       2.749 -16.505 -18.009  1.00  0.00     0.210 HD
ATOM    260  C3'   G A  10       0.596 -16.835 -18.743  1.00  0.00     0.198 C 
ATOM    261  O3'   G A  10       1.500 -17.577 -19.557  1.00  0.00    -0.279 OA
ATOM    262  P     C A  11       1.155 -19.099 -19.950  1.00  0.00     0.408 P 
ATOM    263  OP1   C A  11       2.197 -19.559 -20.902  1.00  0.00    -0.624 OA
ATOM    264  OP2   C A  11      -0.277 -19.171 -20.340  1.00  0.00    -0.624 OA
ATOM    265  O5'   C A  11       1.336 -19.902 -18.586  1.00  0.00    -0.287 OA
ATOM    266  C5'   C A  11       2.617 -20.019 -17.967  1.00  0.00     0.216 C 
ATOM    267  C4'   C A  11       2.538 -20.927 -16.760  1.00  0.00     0.180 C 
ATOM    268  O4'   C A  11       1.735 -20.281 -15.734  1.00  0.00    -0.353 OA
ATOM    269  C1'   C A  11       0.916 -21.243 -15.089  1.00  0.00     0.264 C 
ATOM    270  N1    C A  11      -0.492 -20.926 -15.384  1.00  0.00    -0.278 N 
ATOM    271  C6    C A  11      -0.826 -20.185 -16.483  1.00  0.00     0.102 A 
ATOM    272  C2    C A  11      -1.487 -21.393 -14.519  1.00  0.00     0.352 A 
ATOM    273  O2    C A  11      -1.160 -22.067 -13.531  1.00  0.00    -0.244 OA
ATOM    274  N3    C A  11      -2.780 -21.102 -14.781  1.00  0.00    -0.177 NA
ATOM    275  C4    C A  11      -3.095 -20.377 -15.856  1.00  0.00     0.128 A 
ATOM    276  N4    C A  11      -4.383 -20.116 -16.075  1.00  0.00    -0.384 N 
ATOM    277  H41   C A  11      -4.660 -19.571 -16.878  1.00  0.00     0.157 HD
ATOM    278  H42   C A  11      -5.082 -20.463 -15.433  1.00  0.00     0.157 HD
ATOM    279  C5    C A  11      -2.103 -19.889 -16.755  1.00  0.00     0.067 A 
ATOM    280  C2'   C A  11       1.359 -22.616 -15.589  1.00  0.00     0.199 C 
ATOM    281  O2'   C A  11       2.416 -23.077 -14.770  1.00  0.00    -0.388 OA
ATOM    282 'HO2   C A  11       3.183 -23.178 -15.334  1.00  0.00     0.210 HD
ATOM    283  C3'   C A  11       1.855 -22.269 -16.986  1.00  0.00     0.198 C 
ATOM    284  O3'   C A  11       2.762 -23.241 -17.501  1.00  0.00    -0.279 OA
ATOM    285  P     C A  12       2.193 -24.577 -18.194  1.00  0.00     0.408 P 
ATOM    286  OP1   C A  12       3.360 -25.351 -18.689  1.00  0.00    -0.624 OA
ATOM    287  OP2   C A  12       1.112 -24.194 -19.138  1.00  0.00    -0.624 OA
ATOM    288  O5'   C A  12       1.533 -25.388 -16.990  1.00  0.00    -0.287 OA
ATOM    289  C5'   C A  12       2.323 -25.851 -15.897  1.00  0.00     0.216 C 
ATOM    290  C4'   C A  12       1.434 -26.405 -14.807  1.00  0.00     0.180 C 
ATOM    291  O4'   C A  12       0.536 -25.361 -14.343  1.00  0.00    -0.353 OA
ATOM    292  C1'   C A  12      -0.721 -25.926 -14.009  1.00  0.00     0.264 C 
ATOM    293  N1    C A  12      -1.749 -25.312 -14.865  1.00  0.00    -0.278 N 
ATOM    294  C6    C A  12      -1.434 -24.823 -16.102  1.00  0.00     0.102 A 
ATOM    295  C2    C A  12      -3.061 -25.236 -14.392  1.00  0.00     0.352 A 
ATOM    296  O2    C A  12      -3.320 -25.686 -13.267  1.00  0.00    -0.244 OA
ATOM    297  N3    C A  12      -4.014 -24.676 -15.169  1.00  0.00    -0.177 NA
ATOM    298  C4    C A  12      -3.695 -24.198 -16.373  1.00  0.00     0.128 A 
ATOM    299  N4    C A  12      -4.667 -23.652 -17.102  1.00  0.00    -0.384 N 
ATOM    300  H41   C A  12      -4.467 -23.279 -18.018  1.00  0.00     0.157 HD
ATOM    301  H42   C A  12      -5.608 -23.613 -16.732  1.00  0.00     0.157 HD
ATOM    302  C5    C A  12      -2.365 -24.260 -16.882  1.00  0.00     0.067 A 
ATOM    303  C2'   C A  12      -0.603 -27.441 -14.180  1.00  0.00     0.199 C 
ATOM    304  O2'   C A  12      -0.191 -28.005 -12.949  1.00  0.00    -0.388 OA
ATOM    305 'HO2   C A  12       0.546 -28.585 -13.146  1.00  0.00     0.210 HD
ATOM    306  C3'   C A  12       0.501 -27.533 -15.225  1.00  0.00     0.198 C 
ATOM    307  O3'   C A  12       1.159 -28.796 -15.214  1.00  0.00    -0.279 OA
ATOM    308  P     A A  13       0.633 -29.978 -16.171  1.00  0.00     0.408 P 
ATOM    309  OP1   A A  13       1.549 -31.134 -15.987  1.00  0.00    -0.624 OA
ATOM    310  OP2   A A  13       0.418 -29.424 -17.531  1.00  0.00    -0.624 OA
ATOM    311  O5'   A A  13      -0.786 -30.367 -15.559  1.00  0.00    -0.287 OA
ATOM    312  C5'   A A  13      -0.894 -30.901 -14.241  1.00  0.00     0.216 C 
ATOM    313  C4'   A A  13      -2.346 -31.089 -13.869  1.00  0.00     0.180 C 
ATOM    314  O4'   A A  13      -2.974 -29.790 -13.713  1.00  0.00    -0.353 OA
ATOM    315  C1'   A A  13      -4.340 -29.878 -14.080  1.00  0.00     0.262 C 
ATOM    316  N9    A A  13      -4.602 -28.884 -15.121  1.00  0.00    -0.294 N 
ATOM    317  C4    A A  13      -5.808 -28.281 -15.381  1.00  0.00     0.167 A 
ATOM    318  N3    A A  13      -6.973 -28.481 -14.741  1.00  0.00    -0.222 NA
ATOM    319  C2    A A  13      -7.933 -27.723 -15.267  1.00  0.00     0.237 A 
ATOM    320  N1    A A  13      -7.864 -26.852 -16.281  1.00  0.00    -0.222 NA
ATOM    321  C6    A A  13      -6.678 -26.672 -16.900  1.00  0.00     0.155 A 
ATOM    322  N6    A A  13      -6.612 -25.800 -17.906  1.00  0.00    -0.382 N 
ATOM    323  H61   A A  13      -5.736 -25.646 -18.383  1.00  0.00     0.157 HD
ATOM    324  H62   A A  13      -7.444 -25.302 -18.186  1.00  0.00     0.157 HD
ATOM    325  C5    A A  13      -5.580 -27.420 -16.439  1.00  0.00     0.149 A 
ATOM    326  N7    A A  13      -4.253 -27.479 -16.842  1.00  0.00    -0.236 NA
ATOM    327  C8    A A  13      -3.717 -28.360 -16.032  1.00  0.00     0.214 A 
ATOM    328  C2'   A A  13      -4.612 -31.318 -14.520  1.00  0.00     0.199 C 
ATOM    329  O2'   A A  13      -5.102 -32.046 -13.410  1.00  0.00    -0.388 OA
ATOM    330 'HO2   A A  13      -4.589 -32.854 -13.367  1.00  0.00     0.210 HD
ATOM    331  C3'   A A  13      -3.214 -31.786 -14.905  1.00  0.00     0.198 C 
ATOM    332  O3'   A A  13      -3.076 -33.203 -14.842  1.00  0.00    -0.279 OA
ATOM    333  P     A A  14      -3.469 -34.103 -16.117  1.00  0.00     0.408 P 
ATOM    334  OP1   A A  14      -3.027 -35.491 -15.829  1.00  0.00    -0.624 OA
ATOM    335  OP2   A A  14      -2.986 -33.420 -17.344  1.00  0.00    -0.624 OA
ATOM    336  O5'   A A  14      -5.063 -34.083 -16.130  1.00  0.00    -0.287 OA
ATOM    337  C5'   A A  14      -5.815 -34.628 -15.047  1.00  0.00     0.216 C 
ATOM    338  C4'   A A  14      -7.226 -34.085 -15.062  1.00  0.00     0.180 C 
ATOM    339  O4'   A A  14      -7.185 -32.677 -15.434  1.00  0.00    -0.353 OA
ATOM    340  C1'   A A  14      -7.886 -32.482 -16.647  1.00  0.00     0.262 C 
ATOM    341  N9    A A  14      -7.151 -31.508 -17.453  1.00  0.00    -0.294 N 
ATOM    342  C4    A A  14      -7.669 -30.381 -18.044  1.00  0.00     0.167 A 
ATOM    343  N3    A A  14      -8.940 -29.948 -18.002  1.00  0.00    -0.222 NA
ATOM    344  C2    A A  14      -9.075 -28.818 -18.692  1.00  0.00     0.237 A 
ATOM    345  N1    A A  14      -8.150 -28.124 -19.369  1.00  0.00    -0.222 NA
ATOM    346  C6    A A  14      -6.882 -28.587 -19.390  1.00  0.00     0.155 A 
ATOM    347  N6    A A  14      -5.962 -27.895 -20.063  1.00  0.00    -0.382 N 
ATOM    348  H61   A A  14      -5.008 -28.224 -20.090  1.00  0.00     0.157 HD
ATOM    349  H62   A A  14      -6.223 -27.048 -20.546  1.00  0.00     0.157 HD
ATOM    350  C5    A A  14      -6.609 -29.777 -18.696  1.00  0.00     0.149 A 
ATOM    351  N7    A A  14      -5.443 -30.509 -18.519  1.00  0.00    -0.236 NA
ATOM    352  C8    A A  14      -5.818 -31.522 -17.777  1.00  0.00     0.214 A 
ATOM    353  C2'   A A  14      -8.018 -33.856 -17.298  1.00  0.00     0.199 C 
ATOM    354  O2'   A A  14      -9.189 -33.875 -18.094  1.00  0.00    -0.388 OA
ATOM    355 'HO2   A A  14      -9.936 -33.807 -17.497  1.00  0.00     0.210 HD
ATOM    356  C3'   A A  14      -8.164 -34.744 -16.069  1.00  0.00     0.198 C 
ATOM    357  O3'   A A  14      -9.503 -34.776 -15.580  1.00  0.00    -0.279 OA
ATOM    358  P     G A  15     -10.379 -36.116 -15.728  1.00  0.00     0.408 P 
ATOM    359  OP1   G A  15     -10.338 -36.815 -14.418  1.00  0.00    -0.624 OA
ATOM    360  OP2   G A  15      -9.950 -36.834 -16.955  1.00  0.00    -0.624 OA
ATOM    361  O5'   G A  15     -11.865 -35.584 -15.954  1.00  0.00    -0.287 OA
ATOM    362  C5'   G A  15     -12.436 -34.597 -15.092  1.00  0.00     0.216 C 
ATOM    363  C4'   G A  15     -11.906 -33.224 -15.444  1.00  0.00     0.180 C 
ATOM    364  O4'   G A  15     -11.653 -33.164 -16.876  1.00  0.00    -0.353 OA
ATOM    365  C1'   G A  15     -12.045 -31.898 -17.379  1.00  0.00     0.262 C 
ATOM    366  N9    G A  15     -13.160 -32.095 -18.301  1.00  0.00    -0.293 N 
ATOM    367  C4    G A  15     -13.555 -31.239 -19.300  1.00  0.00     0.187 A 
ATOM    368  N3    G A  15     -12.975 -30.061 -19.612  1.00  0.00    -0.044 NA
ATOM    369  C2    G A  15     -13.583 -29.463 -20.620  1.00  0.00     0.703 A 
ATOM    370  N2    G A  15     -13.135 -28.283 -21.057  1.00  0.00    -0.233 N 
ATOM    371  H21   G A  15     -12.334 -27.862 -20.610  1.00  0.00     0.174 HD
ATOM    372  H22   G A  15     -13.596 -27.812 -21.821  1.00  0.00     0.174 HD
ATOM    373  N1    G A  15     -14.674 -29.976 -21.273  1.00  0.00    -0.153 N 
ATOM    374  H1    G A  15     -15.064 -29.438 -22.031  1.00  0.00     0.187 HD
ATOM    375  C6    G A  15     -15.289 -31.185 -20.972  1.00  0.00     0.292 A 
ATOM    376  O6    G A  15     -16.271 -31.554 -21.626  1.00  0.00    -0.265 OA
ATOM    377  C5    G A  15     -14.647 -31.842 -19.889  1.00  0.00     0.173 A 
ATOM    378  N7    G A  15     -14.930 -33.055 -19.274  1.00  0.00    -0.234 NA
ATOM    379  C8    G A  15     -14.023 -33.162 -18.342  1.00  0.00     0.214 A 
ATOM    380  C2'   G A  15     -12.392 -31.019 -16.179  1.00  0.00     0.199 C 
ATOM    381  O2'   G A  15     -11.216 -30.371 -15.731  1.00  0.00    -0.388 OA
ATOM    382 'HO2   G A  15     -11.130 -30.568 -14.798  1.00  0.00     0.210 HD
ATOM    383  C3'   G A  15     -12.859 -32.066 -15.177  1.00  0.00     0.198 C 
ATOM    384  O3'   G A  15     -12.769 -31.607 -13.830  1.00  0.00    -0.279 OA
ATOM    385  P     U A  16     -13.914 -30.644 -13.237  1.00  0.00     0.408 P 
ATOM    386  OP1   U A  16     -13.301 -29.866 -12.131  1.00  0.00    -0.624 OA
ATOM    387  OP2   U A  16     -15.121 -31.468 -12.971  1.00  0.00    -0.624 OA
ATOM    388  O5'   U A  16     -14.246 -29.650 -14.438  1.00  0.00    -0.287 OA
ATOM    389  C5'   U A  16     -14.481 -28.259 -14.210  1.00  0.00     0.216 C 
ATOM    390  C4'   U A  16     -13.885 -27.438 -15.333  1.00  0.00     0.180 C 
ATOM    391  O4'   U A  16     -13.702 -28.298 -16.495  1.00  0.00    -0.353 OA
ATOM    392  C1'   U A  16     -14.222 -27.666 -17.648  1.00  0.00     0.264 C 
ATOM    393  N1    U A  16     -15.465 -28.353 -18.032  1.00  0.00    -0.280 N 
ATOM    394  C6    U A  16     -16.028 -29.316 -17.224  1.00  0.00     0.104 A 
ATOM    395  C2    U A  16     -16.053 -28.001 -19.235  1.00  0.00     0.331 A 
ATOM    396  O2    U A  16     -15.588 -27.156 -19.979  1.00  0.00    -0.246 OA
ATOM    397  N3    U A  16     -17.208 -28.677 -19.535  1.00  0.00    -0.275 N 
ATOM    398  H3    U A  16     -17.656 -28.442 -20.407  1.00  0.00     0.173 HD
ATOM    399  C4    U A  16     -17.823 -29.645 -18.775  1.00  0.00     0.250 A 
ATOM    400  O4    U A  16     -18.870 -30.152 -19.177  1.00  0.00    -0.268 OA
ATOM    401  C5    U A  16     -17.156 -29.954 -17.550  1.00  0.00     0.092 A 
ATOM    402  C2'   U A  16     -14.403 -26.191 -17.301  1.00  0.00     0.199 C 
ATOM    403  O2'   U A  16     -13.171 -25.525 -17.505  1.00  0.00    -0.388 OA
ATOM    404 'HO2   U A  16     -12.810 -25.331 -16.638  1.00  0.00     0.210 HD
ATOM    405  C3'   U A  16     -14.751 -26.279 -15.820  1.00  0.00     0.198 C 
ATOM    406  O3'   U A  16     -14.449 -25.071 -15.125  1.00  0.00    -0.279 OA
ATOM    407  P     G A  17     -15.216 -24.719 -13.754  1.00  0.00     0.408 P 
ATOM    408  OP1   G A  17     -16.470 -25.515 -13.714  1.00  0.00    -0.624 OA
ATOM    409  OP2   G A  17     -15.282 -23.240 -13.633  1.00  0.00    -0.624 OA
ATOM    410  O5'   G A  17     -14.246 -25.273 -12.617  1.00  0.00    -0.287 OA
ATOM    411  C5'   G A  17     -14.176 -24.645 -11.337  1.00  0.00     0.216 C 
ATOM    412  C4'   G A  17     -12.971 -25.146 -10.572  1.00  0.00     0.180 C 
ATOM    413  O4'   G A  17     -12.157 -25.972 -11.449  1.00  0.00    -0.353 OA
ATOM    414  C1'   G A  17     -10.784 -25.737 -11.189  1.00  0.00     0.262 C 
ATOM    415  N9    G A  17     -10.174 -25.177 -12.390  1.00  0.00    -0.293 N 
ATOM    416  C4    G A  17      -8.843 -25.226 -12.724  1.00  0.00     0.187 A 
ATOM    417  N3    G A  17      -7.866 -25.809 -11.999  1.00  0.00    -0.044 NA
ATOM    418  C2    G A  17      -6.686 -25.692 -12.579  1.00  0.00     0.703 A 
ATOM    419  N2    G A  17      -5.607 -26.217 -11.993  1.00  0.00    -0.233 N 
ATOM    420  H21   G A  17      -5.705 -26.698 -11.111  1.00  0.00     0.174 HD
ATOM    421  H22   G A  17      -4.698 -26.132 -12.427  1.00  0.00     0.174 HD
ATOM    422  N1    G A  17      -6.476 -25.053 -13.774  1.00  0.00    -0.153 N 
ATOM    423  H1    G A  17      -5.533 -25.021 -14.130  1.00  0.00     0.187 HD
ATOM    424  C6    G A  17      -7.465 -24.445 -14.539  1.00  0.00     0.292 A 
ATOM    425  O6    G A  17      -7.166 -23.895 -15.605  1.00  0.00    -0.265 OA
ATOM    426  C5    G A  17      -8.743 -24.563 -13.930  1.00  0.00     0.173 A 
ATOM    427  N7    G A  17      -9.987 -24.108 -14.347  1.00  0.00    -0.234 NA
ATOM    428  C8    G A  17     -10.802 -24.495 -13.404  1.00  0.00     0.214 A 
ATOM    429  C2'   G A  17     -10.695 -24.811  -9.977  1.00  0.00     0.199 C 
ATOM    430  O2'   G A  17     -10.631 -25.602  -8.805  1.00  0.00    -0.388 OA
ATOM    431 'HO2   G A  17      -9.846 -25.328  -8.328  1.00  0.00     0.210 HD
ATOM    432  C3'   G A  17     -12.019 -24.064 -10.080  1.00  0.00     0.198 C 
ATOM    433  O3'   G A  17     -12.437 -23.520  -8.830  1.00  0.00    -0.279 OA
ATOM    434  P     G A  18     -11.835 -22.115  -8.329  1.00  0.00     0.408 P 
ATOM    435  OP1   G A  18     -12.525 -21.765  -7.061  1.00  0.00    -0.624 OA
ATOM    436  OP2   G A  18     -11.859 -21.158  -9.464  1.00  0.00    -0.624 OA
ATOM    437  O5'   G A  18     -10.312 -22.443  -7.990  1.00  0.00    -0.287 OA
ATOM    438  C5'   G A  18      -9.957 -23.138  -6.796  1.00  0.00     0.216 C 
ATOM    439  C4'   G A  18      -8.482 -23.463  -6.799  1.00  0.00     0.180 C 
ATOM    440  O4'   G A  18      -8.130 -24.069  -8.071  1.00  0.00    -0.353 OA
ATOM    441  C1'   G A  18      -6.809 -23.698  -8.424  1.00  0.00     0.262 C 
ATOM    442  N9    G A  18      -6.843 -23.047  -9.729  1.00  0.00    -0.293 N 
ATOM    443  C4    G A  18      -5.782 -22.891 -10.588  1.00  0.00     0.187 A 
ATOM    444  N3    G A  18      -4.520 -23.316 -10.373  1.00  0.00    -0.044 NA
ATOM    445  C2    G A  18      -3.720 -23.014 -11.380  1.00  0.00     0.703 A 
ATOM    446  N2    G A  18      -2.431 -23.358 -11.328  1.00  0.00    -0.233 N 
ATOM    447  H21   G A  18      -2.081 -23.848 -10.519  1.00  0.00     0.174 HD
ATOM    448  H22   G A  18      -1.811 -23.129 -12.093  1.00  0.00     0.174 HD
ATOM    449  N1    G A  18      -4.125 -22.350 -12.509  1.00  0.00    -0.153 N 
ATOM    450  H1    G A  18      -3.432 -22.170 -13.219  1.00  0.00     0.187 HD
ATOM    451  C6    G A  18      -5.419 -21.906 -12.755  1.00  0.00     0.292 A 
ATOM    452  O6    G A  18      -5.676 -21.319 -13.812  1.00  0.00    -0.265 OA
ATOM    453  C5    G A  18      -6.291 -22.220 -11.680  1.00  0.00     0.173 A 
ATOM    454  N7    G A  18      -7.645 -21.960 -11.512  1.00  0.00    -0.234 NA
ATOM    455  C8    G A  18      -7.926 -22.467 -10.343  1.00  0.00     0.214 A 
ATOM    456  C2'   G A  18      -6.260 -22.798  -7.314  1.00  0.00     0.199 C 
ATOM    457  O2'   G A  18      -5.539 -23.599  -6.396  1.00  0.00    -0.388 OA
ATOM    458 'HO2   G A  18      -5.951 -23.467  -5.541  1.00  0.00     0.210 HD
ATOM    459  C3'   G A  18      -7.545 -22.269  -6.687  1.00  0.00     0.198 C 
ATOM    460  O3'   G A  18      -7.360 -21.871  -5.330  1.00  0.00    -0.279 OA
ATOM    461  P     C A  19      -6.961 -20.350  -4.989  1.00  0.00     0.408 P 
ATOM    462  OP1   C A  19      -6.773 -20.256  -3.519  1.00  0.00    -0.624 OA
ATOM    463  OP2   C A  19      -7.932 -19.451  -5.663  1.00  0.00    -0.624 OA
ATOM    464  O5'   C A  19      -5.539 -20.156  -5.682  1.00  0.00    -0.287 OA
ATOM    465  C5'   C A  19      -4.412 -20.938  -5.284  1.00  0.00     0.216 C 
ATOM    466  C4'   C A  19      -3.138 -20.334  -5.831  1.00  0.00     0.180 C 
ATOM    467  O4'   C A  19      -3.253 -20.239  -7.280  1.00  0.00    -0.353 OA
ATOM    468  C1'   C A  19      -3.214 -18.881  -7.672  1.00  0.00     0.264 C 
ATOM    469  N1    C A  19      -4.191 -18.678  -8.752  1.00  0.00    -0.278 N 
ATOM    470  C6    C A  19      -5.502 -19.028  -8.585  1.00  0.00     0.102 A 
ATOM    471  C2    C A  19      -3.760 -18.115  -9.955  1.00  0.00     0.352 A 
ATOM    472  O2    C A  19      -2.562 -17.819 -10.086  1.00  0.00    -0.244 OA
ATOM    473  N3    C A  19      -4.654 -17.906 -10.944  1.00  0.00    -0.177 NA
ATOM    474  C4    C A  19      -5.933 -18.240 -10.768  1.00  0.00     0.128 A 
ATOM    475  N4    C A  19      -6.779 -17.999 -11.768  1.00  0.00    -0.384 N 
ATOM    476  H41   C A  19      -7.758 -18.231 -11.682  1.00  0.00     0.157 HD
ATOM    477  H42   C A  19      -6.427 -17.569 -12.612  1.00  0.00     0.157 HD
ATOM    478  C5    C A  19      -6.400 -18.829  -9.557  1.00  0.00     0.067 A 
ATOM    479  C2'   C A  19      -3.500 -18.056  -6.421  1.00  0.00     0.199 C 
ATOM    480  O2'   C A  19      -2.858 -16.800  -6.545  1.00  0.00    -0.388 OA
ATOM    481 'HO2   C A  19      -1.991 -16.894  -6.149  1.00  0.00     0.210 HD
ATOM    482  C3'   C A  19      -2.837 -18.915  -5.355  1.00  0.00     0.198 C 
ATOM    483  O3'   C A  19      -1.435 -18.667  -5.274  1.00  0.00    -0.279 OA
ATOM    484  P     C A  20      -0.663 -18.852  -3.873  1.00  0.00     0.408 P 
ATOM    485  OP1   C A  20      -1.680 -18.952  -2.795  1.00  0.00    -0.624 OA
ATOM    486  OP2   C A  20       0.390 -17.809  -3.791  1.00  0.00    -0.624 OA
ATOM    487  O5'   C A  20       0.050 -20.271  -4.012  1.00  0.00    -0.287 OA
ATOM    488  C5'   C A  20       0.411 -20.792  -5.290  1.00  0.00     0.216 C 
ATOM    489  C4'   C A  20       1.826 -21.322  -5.255  1.00  0.00     0.180 C 
ATOM    490  O4'   C A  20       1.776 -22.777  -5.295  1.00  0.00    -0.353 OA
ATOM    491  C1'   C A  20       2.433 -23.247  -6.455  1.00  0.00     0.264 C 
ATOM    492  N1    C A  20       1.678 -24.395  -6.981  1.00  0.00    -0.278 N 
ATOM    493  C6    C A  20       0.366 -24.266  -7.342  1.00  0.00     0.102 A 
ATOM    494  C2    C A  20       2.325 -25.627  -7.106  1.00  0.00     0.352 A 
ATOM    495  O2    C A  20       3.516 -25.715  -6.773  1.00  0.00    -0.244 OA
ATOM    496  N3    C A  20       1.640 -26.688  -7.586  1.00  0.00    -0.177 NA
ATOM    497  C4    C A  20       0.360 -26.552  -7.934  1.00  0.00     0.128 A 
ATOM    498  N4    C A  20      -0.275 -27.626  -8.401  1.00  0.00    -0.384 N 
ATOM    499  H41   C A  20      -1.245 -27.560  -8.674  1.00  0.00     0.157 HD
ATOM    500  H42   C A  20       0.216 -28.504  -8.481  1.00  0.00     0.157 HD
ATOM    501  C5    C A  20      -0.325 -25.308  -7.820  1.00  0.00     0.067 A 
ATOM    502  C2'   C A  20       2.523 -22.063  -7.414  1.00  0.00     0.199 C 
ATOM    503  O2'   C A  20       3.668 -22.221  -8.229  1.00  0.00    -0.388 OA
ATOM    504 'HO2   C A  20       4.350 -21.661  -7.858  1.00  0.00     0.210 HD
ATOM    505  C3'   C A  20       2.698 -20.908  -6.436  1.00  0.00     0.198 C 
ATOM    506  O3'   C A  20       4.058 -20.731  -6.047  1.00  0.00    -0.279 OA
ATOM    507  P     A A  21       4.634 -19.250  -5.802  1.00  0.00     0.408 P 
ATOM    508  OP1   A A  21       3.518 -18.412  -5.293  1.00  0.00    -0.624 OA
ATOM    509  OP2   A A  21       5.885 -19.365  -5.010  1.00  0.00    -0.624 OA
ATOM    510  O5'   A A  21       5.008 -18.735  -7.263  1.00  0.00    -0.287 OA
ATOM    511  C5'   A A  21       6.121 -19.278  -7.975  1.00  0.00     0.216 C 
ATOM    512  C4'   A A  21       6.397 -18.458  -9.214  1.00  0.00     0.180 C 
ATOM    513  O4'   A A  21       5.438 -18.836 -10.240  1.00  0.00    -0.353 OA
ATOM    514  C1'   A A  21       4.554 -17.760 -10.492  1.00  0.00     0.262 C 
ATOM    515  N9    A A  21       3.193 -18.292 -10.556  1.00  0.00    -0.294 N 
ATOM    516  C4    A A  21       2.395 -18.364 -11.672  1.00  0.00     0.167 A 
ATOM    517  N3    A A  21       2.697 -17.964 -12.919  1.00  0.00    -0.222 NA
ATOM    518  C2    A A  21       1.677 -18.191 -13.744  1.00  0.00     0.237 A 
ATOM    519  N1    A A  21       0.479 -18.731 -13.483  1.00  0.00    -0.222 NA
ATOM    520  C6    A A  21       0.208 -19.121 -12.220  1.00  0.00     0.155 A 
ATOM    521  N6    A A  21      -0.984 -19.656 -11.961  1.00  0.00    -0.382 N 
ATOM    522  H61   A A  21      -1.209 -19.954 -11.023  1.00  0.00     0.157 HD
ATOM    523  H62   A A  21      -1.661 -19.754 -12.703  1.00  0.00     0.157 HD
ATOM    524  C5    A A  21       1.208 -18.936 -11.249  1.00  0.00     0.149 A 
ATOM    525  N7    A A  21       1.255 -19.219  -9.891  1.00  0.00    -0.236 NA
ATOM    526  C8    A A  21       2.450 -18.819  -9.529  1.00  0.00     0.214 A 
ATOM    527  C2'   A A  21       4.763 -16.732  -9.383  1.00  0.00     0.199 C 
ATOM    528  O2'   A A  21       4.533 -15.442  -9.920  1.00  0.00    -0.388 OA
ATOM    529 'HO2   A A  21       5.115 -14.830  -9.462  1.00  0.00     0.210 HD
ATOM    530  C3'   A A  21       6.235 -16.950  -9.052  1.00  0.00     0.198 C 
ATOM    531  O3'   A A  21       7.104 -16.239  -9.929  1.00  0.00    -0.279 OA
ATOM    532  P     A A  22       7.728 -14.831  -9.467  1.00  0.00     0.408 P 
ATOM    533  OP1   A A  22       8.489 -15.078  -8.215  1.00  0.00    -0.624 OA
ATOM    534  OP2   A A  22       8.415 -14.221 -10.635  1.00  0.00    -0.624 OA
ATOM    535  O5'   A A  22       6.451 -13.944  -9.116  1.00  0.00    -0.287 OA
ATOM    536  C5'   A A  22       6.405 -13.158  -7.927  1.00  0.00     0.216 C 
ATOM    537  C4'   A A  22       5.327 -12.105  -8.040  1.00  0.00     0.180 C 
ATOM    538  O4'   A A  22       5.589 -11.308  -9.229  1.00  0.00    -0.353 OA
ATOM    539  C1'   A A  22       4.460 -11.334 -10.077  1.00  0.00     0.262 C 
ATOM    540  N9    A A  22       4.923 -11.317 -11.464  1.00  0.00    -0.294 N 
ATOM    541  C4    A A  22       4.295 -10.713 -12.526  1.00  0.00     0.167 A 
ATOM    542  N3    A A  22       3.142 -10.022 -12.506  1.00  0.00    -0.222 NA
ATOM    543  C2    A A  22       2.839  -9.580 -13.724  1.00  0.00     0.237 A 
ATOM    544  N1    A A  22       3.507  -9.739 -14.874  1.00  0.00    -0.222 NA
ATOM    545  C6    A A  22       4.661 -10.439 -14.859  1.00  0.00     0.155 A 
ATOM    546  N6    A A  22       5.325 -10.597 -16.004  1.00  0.00    -0.382 N 
ATOM    547  H61   A A  22       6.190 -11.117 -16.015  1.00  0.00     0.157 HD
ATOM    548  H62   A A  22       4.957 -10.197 -16.855  1.00  0.00     0.157 HD
ATOM    549  C5    A A  22       5.094 -10.961 -13.627  1.00  0.00     0.149 A 
ATOM    550  N7    A A  22       6.207 -11.708 -13.268  1.00  0.00    -0.236 NA
ATOM    551  C8    A A  22       6.059 -11.893 -11.978  1.00  0.00     0.214 A 
ATOM    552  C2'   A A  22       3.667 -12.581  -9.701  1.00  0.00     0.199 C 
ATOM    553  O2'   A A  22       2.300 -12.356  -9.994  1.00  0.00    -0.388 OA
ATOM    554 'HO2   A A  22       1.972 -11.744  -9.334  1.00  0.00     0.210 HD
ATOM    555  C3'   A A  22       3.906 -12.642  -8.196  1.00  0.00     0.198 C 
ATOM    556  O3'   A A  22       2.972 -11.846  -7.469  1.00  0.00    -0.279 OA
ATOM    557  P     A A  23       1.975 -12.539  -6.412  1.00  0.00     0.408 P 
ATOM    558  OP1   A A  23       0.601 -12.410  -6.962  1.00  0.00    -0.624 OA
ATOM    559  OP2   A A  23       2.498 -13.882  -6.053  1.00  0.00    -0.624 OA
ATOM    560  O5'   A A  23       2.074 -11.605  -5.124  1.00  0.00    -0.287 OA
ATOM    561  C5'   A A  23       3.227 -11.629  -4.282  1.00  0.00     0.216 C 
ATOM    562  C4'   A A  23       3.767 -10.229  -4.101  1.00  0.00     0.180 C 
ATOM    563  O4'   A A  23       3.296  -9.719  -2.821  1.00  0.00    -0.353 OA
ATOM    564  C1'   A A  23       4.400  -9.376  -2.010  1.00  0.00     0.262 C 
ATOM    565  N9    A A  23       4.071  -9.693  -0.621  1.00  0.00    -0.294 N 
ATOM    566  C4    A A  23       4.375  -8.929   0.480  1.00  0.00     0.167 A 
ATOM    567  N3    A A  23       5.026  -7.753   0.502  1.00  0.00    -0.222 NA
ATOM    568  C2    A A  23       5.139  -7.303   1.749  1.00  0.00     0.237 A 
ATOM    569  N1    A A  23       4.707  -7.853   2.891  1.00  0.00    -0.222 NA
ATOM    570  C6    A A  23       4.056  -9.034   2.834  1.00  0.00     0.155 A 
ATOM    571  N6    A A  23       3.626  -9.579   3.972  1.00  0.00    -0.382 N 
ATOM    572  H61   A A  23       3.137 -10.462   3.955  1.00  0.00     0.157 HD
ATOM    573  H62   A A  23       3.790  -9.104   4.847  1.00  0.00     0.157 HD
ATOM    574  C5    A A  23       3.872  -9.619   1.568  1.00  0.00     0.149 A 
ATOM    575  N7    A A  23       3.261 -10.798   1.162  1.00  0.00    -0.236 NA
ATOM    576  C8    A A  23       3.407 -10.795  -0.141  1.00  0.00     0.214 A 
ATOM    577  C2'   A A  23       5.595 -10.145  -2.563  1.00  0.00     0.199 C 
ATOM    578  O2'   A A  23       6.777  -9.424  -2.272  1.00  0.00    -0.388 OA
ATOM    579 'HO2   A A  23       6.870  -8.765  -2.962  1.00  0.00     0.210 HD
ATOM    580  C3'   A A  23       5.290 -10.120  -4.056  1.00  0.00     0.198 C 
ATOM    581  O3'   A A  23       5.747  -8.919  -4.672  1.00  0.00    -0.279 OA
ATOM    582  P     G A  24       6.268  -8.946  -6.194  1.00  0.00     0.408 P 
ATOM    583  OP1   G A  24       6.777  -7.585  -6.503  1.00  0.00    -0.624 OA
ATOM    584  OP2   G A  24       7.165 -10.118  -6.360  1.00  0.00    -0.624 OA
ATOM    585  O5'   G A  24       4.946  -9.192  -7.048  1.00  0.00    -0.287 OA
ATOM    586  C5'   G A  24       3.971  -8.163  -7.210  1.00  0.00     0.216 C 
ATOM    587  C4'   G A  24       4.203  -7.426  -8.508  1.00  0.00     0.180 C 
ATOM    588  O4'   G A  24       3.970  -8.346  -9.612  1.00  0.00    -0.353 OA
ATOM    589  C1'   G A  24       3.109  -7.748 -10.561  1.00  0.00     0.262 C 
ATOM    590  N9    G A  24       1.799  -8.383 -10.454  1.00  0.00    -0.293 N 
ATOM    591  C4    G A  24       0.720  -8.187 -11.283  1.00  0.00     0.187 A 
ATOM    592  N3    G A  24       0.679  -7.365 -12.353  1.00  0.00    -0.044 NA
ATOM    593  C2    G A  24      -0.499  -7.393 -12.950  1.00  0.00     0.703 A 
ATOM    594  N2    G A  24      -0.713  -6.634 -14.029  1.00  0.00    -0.233 N 
ATOM    595  H21   G A  24       0.032  -6.048 -14.375  1.00  0.00     0.174 HD
ATOM    596  H22   G A  24      -1.610  -6.646 -14.493  1.00  0.00     0.174 HD
ATOM    597  N1    G A  24      -1.554  -8.163 -12.534  1.00  0.00    -0.153 N 
ATOM    598  H1    G A  24      -2.415  -8.115 -13.061  1.00  0.00     0.187 HD
ATOM    599  C6    G A  24      -1.536  -9.014 -11.435  1.00  0.00     0.292 A 
ATOM    600  O6    G A  24      -2.546  -9.662 -11.143  1.00  0.00    -0.265 OA
ATOM    601  C5    G A  24      -0.277  -8.997 -10.783  1.00  0.00     0.173 A 
ATOM    602  N7    G A  24       0.164  -9.689  -9.663  1.00  0.00    -0.234 NA
ATOM    603  C8    G A  24       1.397  -9.295  -9.508  1.00  0.00     0.214 A 
ATOM    604  C2'   G A  24       3.104  -6.250 -10.270  1.00  0.00     0.199 C 
ATOM    605  O2'   G A  24       4.222  -5.658 -10.905  1.00  0.00    -0.388 OA
ATOM    606 'HO2   G A  24       4.775  -5.302 -10.209  1.00  0.00     0.210 HD
ATOM    607  C3'   G A  24       3.268  -6.247  -8.754  1.00  0.00     0.198 C 
ATOM    608  O3'   G A  24       3.833  -5.030  -8.273  1.00  0.00    -0.279 OA
ATOM    609  P     C A  25       2.917  -3.990  -7.455  1.00  0.00     0.408 P 
ATOM    610  OP1   C A  25       3.761  -2.811  -7.135  1.00  0.00    -0.624 OA
ATOM    611  OP2   C A  25       2.237  -4.726  -6.358  1.00  0.00    -0.624 OA
ATOM    612  O5'   C A  25       1.811  -3.538  -8.509  1.00  0.00    -0.287 OA
ATOM    613  C5'   C A  25       2.180  -2.905  -9.733  1.00  0.00     0.216 C 
ATOM    614  C4'   C A  25       1.020  -2.925 -10.700  1.00  0.00     0.180 C 
ATOM    615  O4'   C A  25       0.739  -4.300 -11.079  1.00  0.00    -0.353 OA
ATOM    616  C1'   C A  25      -0.661  -4.477 -11.226  1.00  0.00     0.264 C 
ATOM    617  N1    C A  25      -1.115  -5.469 -10.237  1.00  0.00    -0.278 N 
ATOM    618  C6    C A  25      -0.289  -5.892  -9.233  1.00  0.00     0.102 A 
ATOM    619  C2    C A  25      -2.413  -5.975 -10.339  1.00  0.00     0.352 A 
ATOM    620  O2    C A  25      -3.143  -5.576 -11.258  1.00  0.00    -0.244 OA
ATOM    621  N3    C A  25      -2.842  -6.885  -9.438  1.00  0.00    -0.177 NA
ATOM    622  C4    C A  25      -2.027  -7.295  -8.465  1.00  0.00     0.128 A 
ATOM    623  N4    C A  25      -2.494  -8.197  -7.603  1.00  0.00    -0.384 N 
ATOM    624  H41   C A  25      -1.909  -8.534  -6.853  1.00  0.00     0.157 HD
ATOM    625  H42   C A  25      -3.437  -8.547  -7.708  1.00  0.00     0.157 HD
ATOM    626  C5    C A  25      -0.698  -6.797  -8.335  1.00  0.00     0.067 A 
ATOM    627  C2'   C A  25      -1.313  -3.105 -11.057  1.00  0.00     0.199 C 
ATOM    628  O2'   C A  25      -1.379  -2.476 -12.323  1.00  0.00    -0.388 OA
ATOM    629 'HO2   C A  25      -1.017  -1.596 -12.214  1.00  0.00     0.210 HD
ATOM    630  C3'   C A  25      -0.304  -2.415 -10.150  1.00  0.00     0.198 C 
ATOM    631  O3'   C A  25      -0.392  -0.994 -10.211  1.00  0.00    -0.279 OA
ATOM    632  P     C A  26      -1.252  -0.198  -9.109  1.00  0.00     0.408 P 
ATOM    633  OP1   C A  26      -0.934   1.245  -9.256  1.00  0.00    -0.624 OA
ATOM    634  OP2   C A  26      -1.064  -0.860  -7.792  1.00  0.00    -0.624 OA
ATOM    635  O5'   C A  26      -2.763  -0.423  -9.562  1.00  0.00    -0.287 OA
ATOM    636  C5'   C A  26      -3.216   0.010 -10.844  1.00  0.00     0.216 C 
ATOM    637  C4'   C A  26      -4.632  -0.460 -11.083  1.00  0.00     0.180 C 
ATOM    638  O4'   C A  26      -4.644  -1.911 -11.187  1.00  0.00    -0.353 OA
ATOM    639  C1'   C A  26      -5.825  -2.421 -10.590  1.00  0.00     0.264 C 
ATOM    640  N1    C A  26      -5.446  -3.260  -9.441  1.00  0.00    -0.278 N 
ATOM    641  C6    C A  26      -4.205  -3.159  -8.875  1.00  0.00     0.102 A 
ATOM    642  C2    C A  26      -6.379  -4.166  -8.933  1.00  0.00     0.352 A 
ATOM    643  O2    C A  26      -7.498  -4.237  -9.460  1.00  0.00    -0.244 OA
ATOM    644  N3    C A  26      -6.043  -4.942  -7.879  1.00  0.00    -0.177 NA
ATOM    645  C4    C A  26      -4.829  -4.839  -7.337  1.00  0.00     0.128 A 
ATOM    646  N4    C A  26      -4.543  -5.628  -6.302  1.00  0.00    -0.384 N 
ATOM    647  H41   C A  26      -3.637  -5.584  -5.860  1.00  0.00     0.157 HD
ATOM    648  H42   C A  26      -5.243  -6.275  -5.964  1.00  0.00     0.157 HD
ATOM    649  C5    C A  26      -3.856  -3.924  -7.833  1.00  0.00     0.067 A 
ATOM    650  C2'   C A  26      -6.691  -1.222 -10.205  1.00  0.00     0.199 C 
ATOM    651  O2'   C A  26      -7.515  -0.883 -11.305  1.00  0.00    -0.388 OA
ATOM    652 'HO2   C A  26      -7.550   0.073 -11.339  1.00  0.00     0.210 HD
ATOM    653  C3'   C A  26      -5.623  -0.163  -9.967  1.00  0.00     0.198 C 
ATOM    654  O3'   C A  26      -6.140   1.162 -10.047  1.00  0.00    -0.279 OA
ATOM    655  P     C A  27      -6.698   1.882  -8.721  1.00  0.00     0.408 P 
ATOM    656  OP1   C A  27      -6.934   3.310  -9.057  1.00  0.00    -0.624 OA
ATOM    657  OP2   C A  27      -5.809   1.534  -7.583  1.00  0.00    -0.624 OA
ATOM    658  O5'   C A  27      -8.112   1.190  -8.472  1.00  0.00    -0.287 OA
ATOM    659  C5'   C A  27      -9.191   1.376  -9.385  1.00  0.00     0.216 C 
ATOM    660  C4'   C A  27     -10.338   0.457  -9.035  1.00  0.00     0.180 C 
ATOM    661  O4'   C A  27      -9.868  -0.918  -9.023  1.00  0.00    -0.353 OA
ATOM    662  C1'   C A  27     -10.588  -1.655  -8.048  1.00  0.00     0.264 C 
ATOM    663  N1    C A  27      -9.629  -2.225  -7.086  1.00  0.00    -0.278 N 
ATOM    664  C6    C A  27      -8.352  -1.745  -6.998  1.00  0.00     0.102 A 
ATOM    665  C2    C A  27     -10.047  -3.270  -6.259  1.00  0.00     0.352 A 
ATOM    666  O2    C A  27     -11.210  -3.683  -6.354  1.00  0.00    -0.244 OA
ATOM    667  N3    C A  27      -9.176  -3.803  -5.374  1.00  0.00    -0.177 NA
ATOM    668  C4    C A  27      -7.930  -3.333  -5.300  1.00  0.00     0.128 A 
ATOM    669  N4    C A  27      -7.106  -3.894  -4.416  1.00  0.00    -0.384 N 
ATOM    670  H41   C A  27      -6.154  -3.569  -4.327  1.00  0.00     0.157 HD
ATOM    671  H42   C A  27      -7.438  -4.653  -3.837  1.00  0.00     0.157 HD
ATOM    672  C5    C A  27      -7.475  -2.266  -6.129  1.00  0.00     0.067 A 
ATOM    673  C2'   C A  27     -11.600  -0.706  -7.406  1.00  0.00     0.199 C 
ATOM    674  O2'   C A  27     -12.826  -0.805  -8.105  1.00  0.00    -0.388 OA
ATOM    675 'HO2   C A  27     -13.119   0.091  -8.277  1.00  0.00     0.210 HD
ATOM    676  C3'   C A  27     -10.937   0.643  -7.650  1.00  0.00     0.198 C 
ATOM    677  O3'   C A  27     -11.867   1.723  -7.611  1.00  0.00    -0.279 OA
ATOM    678  P     C A  28     -12.200   2.441  -6.210  1.00  0.00     0.408 P 
ATOM    679  OP1   C A  28     -12.916   3.705  -6.519  1.00  0.00    -0.624 OA
ATOM    680  OP2   C A  28     -10.960   2.481  -5.392  1.00  0.00    -0.624 OA
ATOM    681  O5'   C A  28     -13.223   1.447  -5.498  1.00  0.00    -0.287 OA
ATOM    682  C5'   C A  28     -14.545   1.262  -6.005  1.00  0.00     0.216 C 
ATOM    683  C4'   C A  28     -15.381   0.489  -5.011  1.00  0.00     0.180 C 
ATOM    684  O4'   C A  28     -14.981  -0.911  -5.045  1.00  0.00    -0.353 OA
ATOM    685  C1'   C A  28     -14.891  -1.416  -3.723  1.00  0.00     0.264 C 
ATOM    686  N1    C A  28     -13.472  -1.659  -3.414  1.00  0.00    -0.278 N 
ATOM    687  C6    C A  28     -12.489  -0.972  -4.069  1.00  0.00     0.102 A 
ATOM    688  C2    C A  28     -13.142  -2.602  -2.438  1.00  0.00     0.352 A 
ATOM    689  O2    C A  28     -14.051  -3.208  -1.854  1.00  0.00    -0.244 OA
ATOM    690  N3    C A  28     -11.839  -2.829  -2.153  1.00  0.00    -0.177 NA
ATOM    691  C4    C A  28     -10.888  -2.156  -2.802  1.00  0.00     0.128 A 
ATOM    692  N4    C A  28      -9.618  -2.416  -2.491  1.00  0.00    -0.384 N 
ATOM    693  H41   C A  28      -8.868  -1.930  -2.958  1.00  0.00     0.157 HD
ATOM    694  H42   C A  28      -9.408  -3.107  -1.784  1.00  0.00     0.157 HD
ATOM    695  C5    C A  28     -11.195  -1.187  -3.798  1.00  0.00     0.067 A 
ATOM    696  C2'   C A  28     -15.550  -0.384  -2.812  1.00  0.00     0.199 C 
ATOM    697  O2'   C A  28     -16.947  -0.618  -2.791  1.00  0.00    -0.388 OA
ATOM    698 'HO2   C A  28     -17.370   0.241  -2.782  1.00  0.00     0.210 HD
ATOM    699  C3'   C A  28     -15.215   0.902  -3.554  1.00  0.00     0.198 C 
ATOM    700  O3'   C A  28     -16.084   1.977  -3.208  1.00  0.00    -0.279 OA
ATOM    701  P     C A  29     -15.585   3.107  -2.177  1.00  0.00     0.408 P 
ATOM    702  OP1   C A  29     -16.558   4.226  -2.238  1.00  0.00    -0.624 OA
ATOM    703  OP2   C A  29     -14.145   3.372  -2.426  1.00  0.00    -0.624 OA
ATOM    704  O5'   C A  29     -15.717   2.409  -0.750  1.00  0.00    -0.287 OA
ATOM    705  C5'   C A  29     -16.986   1.981  -0.257  1.00  0.00     0.216 C 
ATOM    706  C4'   C A  29     -16.803   1.054   0.922  1.00  0.00     0.180 C 
ATOM    707  O4'   C A  29     -16.100  -0.141   0.485  1.00  0.00    -0.353 OA
ATOM    708  C1'   C A  29     -15.228  -0.583   1.513  1.00  0.00     0.264 C 
ATOM    709  N1    C A  29     -13.845  -0.528   1.011  1.00  0.00    -0.278 N 
ATOM    710  C6    C A  29     -13.510   0.282  -0.038  1.00  0.00     0.102 A 
ATOM    711  C2    C A  29     -12.873  -1.318   1.630  1.00  0.00     0.352 A 
ATOM    712  O2    C A  29     -13.203  -2.046   2.577  1.00  0.00    -0.244 OA
ATOM    713  N3    C A  29     -11.599  -1.269   1.183  1.00  0.00    -0.177 NA
ATOM    714  C4    C A  29     -11.282  -0.477   0.158  1.00  0.00     0.128 A 
ATOM    715  N4    C A  29     -10.013  -0.465  -0.246  1.00  0.00    -0.384 N 
ATOM    716  H41   C A  29      -9.724   0.119  -1.017  1.00  0.00     0.157 HD
ATOM    717  H42   C A  29      -9.337  -1.049   0.229  1.00  0.00     0.157 HD
ATOM    718  C5    C A  29     -12.252   0.337  -0.495  1.00  0.00     0.067 A 
ATOM    719  C2'   C A  29     -15.467   0.311   2.730  1.00  0.00     0.199 C 
ATOM    720  O2'   C A  29     -16.489  -0.263   3.523  1.00  0.00    -0.388 OA
ATOM    721 'HO2   C A  29     -17.128   0.429   3.694  1.00  0.00     0.210 HD
ATOM    722  C3'   C A  29     -15.944   1.592   2.058  1.00  0.00     0.198 C 
ATOM    723  O3'   C A  29     -16.689   2.427   2.940  1.00  0.00    -0.279 OA
ATOM    724  P     C A  30     -15.930   3.549   3.807  1.00  0.00     0.408 P 
ATOM    725  OP1   C A  30     -16.960   4.277   4.591  1.00  0.00    -0.624 OA
ATOM    726  OP2   C A  30     -15.022   4.305   2.907  1.00  0.00    -0.624 OA
ATOM    727  O5'   C A  30     -15.031   2.711   4.822  1.00  0.00    -0.287 OA
ATOM    728  C5'   C A  30     -15.627   1.870   5.808  1.00  0.00     0.216 C 
ATOM    729  C4'   C A  30     -14.559   1.241   6.673  1.00  0.00     0.180 C 
ATOM    730  O4'   C A  30     -13.844   0.244   5.895  1.00  0.00    -0.353 OA
ATOM    731  C1'   C A  30     -12.482   0.221   6.287  1.00  0.00     0.264 C 
ATOM    732  N1    C A  30     -11.653   0.531   5.110  1.00  0.00    -0.278 N 
ATOM    733  C6    C A  30     -12.147   1.284   4.082  1.00  0.00     0.102 A 
ATOM    734  C2    C A  30     -10.347   0.040   5.060  1.00  0.00     0.352 A 
ATOM    735  O2    C A  30      -9.924  -0.642   6.005  1.00  0.00    -0.244 OA
ATOM    736  N3    C A  30      -9.577   0.318   3.985  1.00  0.00    -0.177 NA
ATOM    737  C4    C A  30     -10.068   1.051   2.985  1.00  0.00     0.128 A 
ATOM    738  N4    C A  30      -9.273   1.297   1.946  1.00  0.00    -0.384 N 
ATOM    739  H41   C A  30      -9.603   1.847   1.168  1.00  0.00     0.157 HD
ATOM    740  H42   C A  30      -8.332   0.925   1.941  1.00  0.00     0.157 HD
ATOM    741  C5    C A  30     -11.398   1.563   3.008  1.00  0.00     0.067 A 
ATOM    742  C2'   C A  30     -12.314   1.220   7.432  1.00  0.00     0.199 C 
ATOM    743  O2'   C A  30     -12.495   0.537   8.658  1.00  0.00    -0.388 OA
ATOM    744 'HO2   C A  30     -13.323   0.846   9.026  1.00  0.00     0.210 HD
ATOM    745  C3'   C A  30     -13.466   2.180   7.161  1.00  0.00     0.198 C 
ATOM    746  O3'   C A  30     -13.865   2.895   8.327  1.00  0.00    -0.279 OA
ATOM    747  P     C A  31     -13.141   4.281   8.703  1.00  0.00     0.408 P 
ATOM    748  OP1   C A  31     -13.806   4.816   9.918  1.00  0.00    -0.624 OA
ATOM    749  OP2   C A  31     -13.062   5.120   7.480  1.00  0.00    -0.624 OA
ATOM    750  O5'   C A  31     -11.659   3.848   9.100  1.00  0.00    -0.287 OA
ATOM    751  C5'   C A  31     -11.422   2.943  10.177  1.00  0.00     0.216 C 
ATOM    752  C4'   C A  31      -9.940   2.678  10.319  1.00  0.00     0.180 C 
ATOM    753  O4'   C A  31      -9.502   1.839   9.219  1.00  0.00    -0.353 OA
ATOM    754  C1'   C A  31      -8.169   2.169   8.873  1.00  0.00     0.264 C 
ATOM    755  N1    C A  31      -8.135   2.517   7.443  1.00  0.00    -0.278 N 
ATOM    756  C6    C A  31      -9.197   3.138   6.847  1.00  0.00     0.102 A 
ATOM    757  C2    C A  31      -6.993   2.205   6.700  1.00  0.00     0.352 A 
ATOM    758  O2    C A  31      -6.044   1.639   7.264  1.00  0.00    -0.244 OA
ATOM    759  N3    C A  31      -6.949   2.526   5.389  1.00  0.00    -0.177 NA
ATOM    760  C4    C A  31      -7.991   3.129   4.815  1.00  0.00     0.128 A 
ATOM    761  N4    C A  31      -7.902   3.424   3.520  1.00  0.00    -0.384 N 
ATOM    762  H41   C A  31      -8.667   3.881   3.047  1.00  0.00     0.157 HD
ATOM    763  H42   C A  31      -7.061   3.186   3.012  1.00  0.00     0.157 HD
ATOM    764  C5    C A  31      -9.169   3.458   5.547  1.00  0.00     0.067 A 
ATOM    765  C2'   C A  31      -7.710   3.305   9.791  1.00  0.00     0.198 C 
ATOM    766  O2'   C A  31      -7.013   2.745  10.889  1.00  0.00    -0.388 OA
ATOM    767 'HO2   C A  31      -7.278   3.236  11.668  1.00  0.00     0.210 HD
ATOM    768  C3'   C A  31      -9.043   3.903  10.231  1.00  0.00     0.182 C 
ATOM    769  O3'   C A  31      -8.946   4.593  11.482  1.00  0.00    -0.390 OA
ATOM    770 'HO3   C A  31      -9.842   4.783  11.772  1.00  0.00     0.210 HD
ENDROOT
TORSDOF 244
