REMARK WARNING: 32 MAX_TORS EXCEEDED!!!
REMARK  252 active torsions:
REMARK  status: ('A' for Active; 'I' for Inactive)
REMARK    1  A    between atoms: O5'_2  and  C5'_3 
REMARK    2  A    between atoms: C5'_3  and  C4'_4 
REMARK    3  A    between atoms: C1'_6  and  N9_7 
REMARK    4  A    between atoms: C2_10  and  N2_11 
REMARK    5  A    between atoms: C2'_21  and  O2'_22 
REMARK    6  A    between atoms: C3'_24  and  O3'_25 
REMARK    7  A    between atoms: O3'_25  and  P_26 
REMARK    8  A    between atoms: P_26  and  O5'_29 
REMARK    9  A    between atoms: O5'_29  and  C5'_30 
REMARK   10  A    between atoms: C5'_30  and  C4'_31 
REMARK   11  A    between atoms: C1'_33  and  N9_34 
REMARK   12  A    between atoms: C2_37  and  N2_38 
REMARK   13  A    between atoms: C2'_48  and  O2'_49 
REMARK   14  A    between atoms: C3'_51  and  O3'_52 
REMARK   15  A    between atoms: O3'_52  and  P_53 
REMARK   16  A    between atoms: P_53  and  O5'_56 
REMARK   17  A    between atoms: O5'_56  and  C5'_57 
REMARK   18  A    between atoms: C5'_57  and  C4'_58 
REMARK   19  A    between atoms: C1'_60  and  N9_61 
REMARK   20  A    between atoms: C2_64  and  N2_65 
REMARK   21  A    between atoms: C2'_75  and  O2'_76 
REMARK   22  A    between atoms: C3'_78  and  O3'_79 
REMARK   23  A    between atoms: O3'_79  and  P_80 
REMARK   24  A    between atoms: P_80  and  O5'_83 
REMARK   25  A    between atoms: O5'_83  and  C5'_84 
REMARK   26  A    between atoms: C5'_84  and  C4'_85 
REMARK   27  A    between atoms: C1'_87  and  N1_88 
REMARK   28  A    between atoms: C4_93  and  N4_94 
REMARK   29  A    between atoms: C2'_98  and  O2'_99 
REMARK   30  A    between atoms: C3'_101  and  O3'_102 
REMARK   31  A    between atoms: O3'_102  and  P_103 
REMARK   32  A    between atoms: P_103  and  O5'_106 
REMARK   33  A    between atoms: O5'_106  and  C5'_107 
REMARK   34  A    between atoms: C5'_107  and  C4'_108 
REMARK   35  A    between atoms: C1'_110  and  N9_111 
REMARK   36  A    between atoms: C6_116  and  N6_117 
REMARK   37  A    between atoms: C2'_123  and  O2'_124 
REMARK   38  A    between atoms: C3'_126  and  O3'_127 
REMARK   39  A    between atoms: O3'_127  and  P_128 
REMARK   40  A    between atoms: P_128  and  O5'_131 
REMARK   41  A    between atoms: O5'_131  and  C5'_132 
REMARK   42  A    between atoms: C5'_132  and  C4'_133 
REMARK   43  A    between atoms: C1'_135  and  N9_136 
REMARK   44  A    between atoms: C2_139  and  N2_140 
REMARK   45  A    between atoms: C2'_150  and  O2'_151 
REMARK   46  A    between atoms: C3'_153  and  O3'_154 
REMARK   47  A    between atoms: O3'_154  and  P_155 
REMARK   48  A    between atoms: P_155  and  O5'_158 
REMARK   49  A    between atoms: O5'_158  and  C5'_159 
REMARK   50  A    between atoms: C5'_159  and  C4'_160 
REMARK   51  A    between atoms: C1'_162  and  N9_163 
REMARK   52  A    between atoms: C2_166  and  N2_167 
REMARK   53  A    between atoms: C2'_177  and  O2'_178 
REMARK   54  A    between atoms: C3'_180  and  O3'_181 
REMARK   55  A    between atoms: O3'_181  and  P_182 
REMARK   56  A    between atoms: P_182  and  O5'_185 
REMARK   57  A    between atoms: O5'_185  and  C5'_186 
REMARK   58  A    between atoms: C5'_186  and  C4'_187 
REMARK   59  A    between atoms: C1'_189  and  N9_190 
REMARK   60  A    between atoms: C2_193  and  N2_194 
REMARK   61  A    between atoms: C2'_204  and  O2'_205 
REMARK   62  A    between atoms: C3'_207  and  O3'_208 
REMARK   63  A    between atoms: O3'_208  and  P_209 
REMARK   64  A    between atoms: P_209  and  O5'_212 
REMARK   65  A    between atoms: O5'_212  and  C5'_213 
REMARK   66  A    between atoms: C5'_213  and  C4'_214 
REMARK   67  A    between atoms: C1'_216  and  N9_217 
REMARK   68  A    between atoms: C2_220  and  N2_221 
REMARK   69  A    between atoms: C2'_231  and  O2'_232 
REMARK   70  A    between atoms: C3'_234  and  O3'_235 
REMARK   71  A    between atoms: O3'_235  and  P_236 
REMARK   72  A    between atoms: P_236  and  O5'_239 
REMARK   73  A    between atoms: O5'_239  and  C5'_240 
REMARK   74  A    between atoms: C5'_240  and  C4'_241 
REMARK   75  A    between atoms: C1'_243  and  N9_244 
REMARK   76  A    between atoms: C2_247  and  N2_248 
REMARK   77  A    between atoms: C2'_258  and  O2'_259 
REMARK   78  A    between atoms: C3'_261  and  O3'_262 
REMARK   79  A    between atoms: O3'_262  and  P_263 
REMARK   80  A    between atoms: P_263  and  O5'_266 
REMARK   81  A    between atoms: O5'_266  and  C5'_267 
REMARK   82  A    between atoms: C5'_267  and  C4'_268 
REMARK   83  A    between atoms: C1'_270  and  N1_271 
REMARK   84  A    between atoms: C2'_280  and  O2'_281 
REMARK   85  A    between atoms: C3'_283  and  O3'_284 
REMARK   86  A    between atoms: O3'_284  and  P_285 
REMARK   87  A    between atoms: P_285  and  O5'_288 
REMARK   88  A    between atoms: O5'_288  and  C5'_289 
REMARK   89  A    between atoms: C5'_289  and  C4'_290 
REMARK   90  A    between atoms: C1'_292  and  N1_293 
REMARK   91  A    between atoms: C2'_302  and  O2'_303 
REMARK   92  A    between atoms: C3'_305  and  O3'_306 
REMARK   93  A    between atoms: O3'_306  and  P_307 
REMARK   94  A    between atoms: P_307  and  O5'_310 
REMARK   95  A    between atoms: O5'_310  and  C5'_311 
REMARK   96  A    between atoms: C5'_311  and  C4'_312 
REMARK   97  A    between atoms: C1'_314  and  N9_315 
REMARK   98  A    between atoms: C6_320  and  N6_321 
REMARK   99  A    between atoms: C2'_327  and  O2'_328 
REMARK  100  A    between atoms: C3'_330  and  O3'_331 
REMARK  101  A    between atoms: O3'_331  and  P_332 
REMARK  102  A    between atoms: P_332  and  O5'_335 
REMARK  103  A    between atoms: O5'_335  and  C5'_336 
REMARK  104  A    between atoms: C5'_336  and  C4'_337 
REMARK  105  A    between atoms: C1'_339  and  N1_340 
REMARK  106  A    between atoms: C2'_349  and  O2'_350 
REMARK  107  A    between atoms: C3'_352  and  O3'_353 
REMARK  108  A    between atoms: O3'_353  and  P_354 
REMARK  109  A    between atoms: P_354  and  O5'_357 
REMARK  110  A    between atoms: O5'_357  and  C5'_358 
REMARK  111  A    between atoms: C5'_358  and  C4'_359 
REMARK  112  A    between atoms: C1'_361  and  N1_362 
REMARK  113  A    between atoms: C4_367  and  N4_368 
REMARK  114  A    between atoms: C2'_372  and  O2'_373 
REMARK  115  A    between atoms: C3'_375  and  O3'_376 
REMARK  116  A    between atoms: O3'_376  and  P_377 
REMARK  117  A    between atoms: P_377  and  O5'_380 
REMARK  118  A    between atoms: O5'_380  and  C5'_381 
REMARK  119  A    between atoms: C5'_381  and  C4'_382 
REMARK  120  A    between atoms: C1'_384  and  N1_385 
REMARK  121  A    between atoms: C4_390  and  N4_391 
REMARK  122  A    between atoms: C2'_395  and  O2'_396 
REMARK  123  A    between atoms: C3'_398  and  O3'_399 
REMARK  124  A    between atoms: O3'_399  and  P_400 
REMARK  125  A    between atoms: P_400  and  O5'_403 
REMARK  126  A    between atoms: O5'_403  and  C5'_404 
REMARK  127  A    between atoms: C5'_404  and  C4'_405 
REMARK  128  A    between atoms: C1'_407  and  N1_408 
REMARK  129  A    between atoms: C4_413  and  N4_414 
REMARK  130  A    between atoms: C2'_418  and  O2'_419 
REMARK  131  A    between atoms: C3'_421  and  O3'_422 
REMARK  132  A    between atoms: O3'_422  and  P_423 
REMARK  133  A    between atoms: P_423  and  O5'_426 
REMARK  134  A    between atoms: O5'_426  and  C5'_427 
REMARK  135  A    between atoms: C5'_427  and  C4'_428 
REMARK  136  A    between atoms: C1'_430  and  N1_431 
REMARK  137  A    between atoms: C4_436  and  N4_437 
REMARK  138  A    between atoms: C2'_441  and  O2'_442 
REMARK  139  A    between atoms: C3'_444  and  O3'_445 
REMARK  140  A    between atoms: O3'_445  and  P_446 
REMARK  141  A    between atoms: P_446  and  O5'_449 
REMARK  142  A    between atoms: O5'_449  and  C5'_450 
REMARK  143  A    between atoms: C5'_450  and  C4'_451 
REMARK  144  A    between atoms: C1'_453  and  N1_454 
REMARK  145  A    between atoms: C4_459  and  N4_460 
REMARK  146  A    between atoms: C2'_464  and  O2'_465 
REMARK  147  A    between atoms: C3'_467  and  O3'_468 
REMARK  148  A    between atoms: O3'_468  and  P_469 
REMARK  149  A    between atoms: P_469  and  O5'_472 
REMARK  150  A    between atoms: O5'_472  and  C5'_473 
REMARK  151  A    between atoms: C5'_473  and  C4'_474 
REMARK  152  A    between atoms: C1'_476  and  N1_477 
REMARK  153  A    between atoms: C2'_486  and  O2'_487 
REMARK  154  A    between atoms: C3'_489  and  O3'_490 
REMARK  155  A    between atoms: O3'_490  and  P_491 
REMARK  156  A    between atoms: P_491  and  O5'_494 
REMARK       I    between atoms: O5'_494  and  C5'_495 
REMARK       I    between atoms: C5'_495  and  C4'_496 
REMARK       I    between atoms: C1'_498  and  N1_499 
REMARK       I    between atoms: C2'_508  and  O2'_509 
REMARK       I    between atoms: C3'_511  and  O3'_512 
REMARK       I    between atoms: O3'_512  and  P_513 
REMARK       I    between atoms: P_513  and  O5'_516 
REMARK       I    between atoms: O5'_516  and  C5'_517 
REMARK       I    between atoms: C5'_517  and  C4'_518 
REMARK  157  A    between atoms: C1'_520  and  N1_521 
REMARK  158  A    between atoms: C4_526  and  N4_527 
REMARK  159  A    between atoms: C2'_531  and  O2'_532 
REMARK       I    between atoms: C3'_534  and  O3'_535 
REMARK       I    between atoms: O3'_535  and  P_536 
REMARK       I    between atoms: P_536  and  O5'_539 
REMARK       I    between atoms: O5'_539  and  C5'_540 
REMARK       I    between atoms: C5'_540  and  C4'_541 
REMARK       I    between atoms: C1'_543  and  N9_544 
REMARK       I    between atoms: C6_549  and  N6_550 
REMARK       I    between atoms: C2'_556  and  O2'_557 
REMARK       I    between atoms: C3'_559  and  O3'_560 
REMARK       I    between atoms: O3'_560  and  P_561 
REMARK       I    between atoms: P_561  and  O5'_564 
REMARK       I    between atoms: O5'_564  and  C5'_565 
REMARK       I    between atoms: C5'_565  and  C4'_566 
REMARK       I    between atoms: C1'_568  and  N1_569 
REMARK       I    between atoms: C2'_578  and  O2'_579 
REMARK       I    between atoms: C3'_581  and  O3'_582 
REMARK       I    between atoms: O3'_582  and  P_583 
REMARK       I    between atoms: P_583  and  O5'_586 
REMARK       I    between atoms: O5'_586  and  C5'_587 
REMARK       I    between atoms: C5'_587  and  C4'_588 
REMARK       I    between atoms: C1'_590  and  N9_591 
REMARK       I    between atoms: C2_594  and  N2_595 
REMARK       I    between atoms: C2'_605  and  O2'_606 
REMARK       I    between atoms: C3'_608  and  O3'_609 
REMARK       I    between atoms: O3'_609  and  P_610 
REMARK       I    between atoms: P_610  and  O5'_613 
REMARK       I    between atoms: O5'_613  and  C5'_614 
REMARK       I    between atoms: C5'_614  and  C4'_615 
REMARK       I    between atoms: C1'_617  and  N9_618 
REMARK       I    between atoms: C2_621  and  N2_622 
REMARK  160  A    between atoms: C2'_632  and  O2'_633 
REMARK  161  A    between atoms: C3'_635  and  O3'_636 
REMARK  162  A    between atoms: O3'_636  and  P_637 
REMARK  163  A    between atoms: P_637  and  O5'_640 
REMARK  164  A    between atoms: O5'_640  and  C5'_641 
REMARK  165  A    between atoms: C5'_641  and  C4'_642 
REMARK  166  A    between atoms: C1'_644  and  N9_645 
REMARK       I    between atoms: C6_650  and  N6_651 
REMARK  167  A    between atoms: C2'_657  and  O2'_658 
REMARK  168  A    between atoms: C3'_660  and  O3'_661 
REMARK  169  A    between atoms: O3'_661  and  P_662 
REMARK  170  A    between atoms: P_662  and  O5'_665 
REMARK  171  A    between atoms: O5'_665  and  C5'_666 
REMARK  172  A    between atoms: C5'_666  and  C4'_667 
REMARK  173  A    between atoms: C1'_669  and  N9_670 
REMARK  174  A    between atoms: C6_675  and  N6_676 
REMARK  175  A    between atoms: C2'_682  and  O2'_683 
REMARK  176  A    between atoms: C3'_685  and  O3'_686 
REMARK  177  A    between atoms: O3'_686  and  P_687 
REMARK  178  A    between atoms: P_687  and  O5'_690 
REMARK  179  A    between atoms: O5'_690  and  C5'_691 
REMARK  180  A    between atoms: C5'_691  and  C4'_692 
REMARK  181  A    between atoms: C1'_694  and  N9_695 
REMARK  182  A    between atoms: C2_698  and  N2_699 
REMARK  183  A    between atoms: C2'_709  and  O2'_710 
REMARK  184  A    between atoms: C3'_712  and  O3'_713 
REMARK  185  A    between atoms: O3'_713  and  P_714 
REMARK  186  A    between atoms: P_714  and  O5'_717 
REMARK  187  A    between atoms: O5'_717  and  C5'_718 
REMARK  188  A    between atoms: C5'_718  and  C4'_719 
REMARK  189  A    between atoms: C1'_721  and  N9_722 
REMARK  190  A    between atoms: C6_727  and  N6_728 
REMARK  191  A    between atoms: C2'_734  and  O2'_735 
REMARK  192  A    between atoms: C3'_737  and  O3'_738 
REMARK  193  A    between atoms: O3'_738  and  P_739 
REMARK  194  A    between atoms: P_739  and  O5'_742 
REMARK  195  A    between atoms: O5'_742  and  C5'_743 
REMARK  196  A    between atoms: C5'_743  and  C4'_744 
REMARK  197  A    between atoms: C1'_746  and  N1_747 
REMARK  198  A    between atoms: C4_752  and  N4_753 
REMARK  199  A    between atoms: C2'_757  and  O2'_758 
REMARK  200  A    between atoms: C3'_760  and  O3'_761 
REMARK  201  A    between atoms: O3'_761  and  P_762 
REMARK       I    between atoms: P_762  and  O5'_765 
REMARK       I    between atoms: O5'_765  and  C5'_766 
REMARK       I    between atoms: C5'_766  and  C4'_767 
REMARK  202  A    between atoms: C1'_769  and  N9_770 
REMARK  203  A    between atoms: C6_775  and  N6_776 
REMARK  204  A    between atoms: C2'_782  and  O2'_783 
REMARK       I    between atoms: C3'_785  and  O3'_786 
REMARK       I    between atoms: O3'_786  and  P_787 
REMARK       I    between atoms: P_787  and  O5'_790 
REMARK       I    between atoms: O5'_790  and  C5'_791 
REMARK       I    between atoms: C5'_791  and  C4'_792 
REMARK       I    between atoms: C1'_794  and  N9_795 
REMARK       I    between atoms: C2_798  and  N2_799 
REMARK       I    between atoms: C2'_809  and  O2'_810 
REMARK       I    between atoms: C3'_812  and  O3'_813 
REMARK       I    between atoms: O3'_813  and  P_814 
REMARK       I    between atoms: P_814  and  O5'_817 
REMARK       I    between atoms: O5'_817  and  C5'_818 
REMARK       I    between atoms: C5'_818  and  C4'_819 
REMARK       I    between atoms: C1'_821  and  N9_822 
REMARK       I    between atoms: C6_827  and  N6_828 
REMARK       I    between atoms: C2'_834  and  O2'_835 
REMARK       I    between atoms: C3'_837  and  O3'_838 
REMARK       I    between atoms: O3'_838  and  P_839 
REMARK       I    between atoms: P_839  and  O5'_842 
REMARK       I    between atoms: O5'_842  and  C5'_843 
REMARK       I    between atoms: C5'_843  and  C4'_844 
REMARK       I    between atoms: C1'_846  and  N1_847 
REMARK       I    between atoms: C2'_856  and  O2'_857 
REMARK       I    between atoms: C3'_859  and  O3'_860 
REMARK       I    between atoms: O3'_860  and  P_861 
REMARK       I    between atoms: P_861  and  O5'_864 
REMARK       I    between atoms: O5'_864  and  C5'_865 
REMARK       I    between atoms: C5'_865  and  C4'_866 
REMARK       I    between atoms: C1'_868  and  N1_869 
REMARK       I    between atoms: C2'_878  and  O2'_879 
REMARK       I    between atoms: C3'_881  and  O3'_882 
REMARK       I    between atoms: O3'_882  and  P_883 
REMARK       I    between atoms: P_883  and  O5'_886 
REMARK       I    between atoms: O5'_886  and  C5'_887 
REMARK       I    between atoms: C5'_887  and  C4'_888 
REMARK       I    between atoms: C1'_890  and  N1_891 
REMARK       I    between atoms: C4_896  and  N4_897 
REMARK       I    between atoms: C2'_901  and  O2'_902 
REMARK       I    between atoms: C3'_904  and  O3'_905 
REMARK       I    between atoms: O3'_905  and  P_906 
REMARK       I    between atoms: P_906  and  O5'_909 
REMARK       I    between atoms: O5'_909  and  C5'_910 
REMARK       I    between atoms: C5'_910  and  C4'_911 
REMARK       I    between atoms: C1'_913  and  N9_914 
REMARK       I    between atoms: C2_917  and  N2_918 
REMARK       I    between atoms: C2'_928  and  O2'_929 
REMARK       I    between atoms: C3'_931  and  O3'_932 
REMARK       I    between atoms: O3'_932  and  P_933 
REMARK       I    between atoms: P_933  and  O5'_936 
REMARK       I    between atoms: O5'_936  and  C5'_937 
REMARK       I    between atoms: C5'_937  and  C4'_938 
REMARK       I    between atoms: C1'_940  and  N9_941 
REMARK       I    between atoms: C6_946  and  N6_947 
REMARK       I    between atoms: C2'_953  and  O2'_954 
REMARK       I    between atoms: C3'_956  and  O3'_957 
REMARK       I    between atoms: O3'_957  and  P_958 
REMARK       I    between atoms: P_958  and  O5'_961 
REMARK       I    between atoms: O5'_961  and  C5'_962 
REMARK       I    between atoms: C5'_962  and  C4'_963 
REMARK       I    between atoms: C1'_965  and  N9_966 
REMARK       I    between atoms: C2_969  and  N2_970 
REMARK       I    between atoms: C2'_980  and  O2'_981 
REMARK       I    between atoms: C3'_983  and  O3'_984 
REMARK       I    between atoms: O3'_984  and  P_985 
REMARK       I    between atoms: P_985  and  O5'_988 
REMARK       I    between atoms: O5'_988  and  C5'_989 
REMARK       I    between atoms: C5'_989  and  C4'_990 
REMARK       I    between atoms: C1'_992  and  N1_993 
REMARK       I    between atoms: C2'_1002  and  O2'_1003 
REMARK       I    between atoms: C3'_1005  and  O3'_1006 
REMARK       I    between atoms: O3'_1006  and  P_1007 
REMARK       I    between atoms: P_1007  and  O5'_1010 
REMARK       I    between atoms: O5'_1010  and  C5'_1011 
REMARK       I    between atoms: C5'_1011  and  C4'_1012 
REMARK       I    between atoms: C1'_1014  and  N1_1015 
REMARK       I    between atoms: C2'_1024  and  O2'_1025 
REMARK       I    between atoms: C3'_1027  and  O3'_1028 
REMARK       I    between atoms: O3'_1028  and  P_1029 
REMARK       I    between atoms: P_1029  and  O5'_1032 
REMARK       I    between atoms: O5'_1032  and  C5'_1033 
REMARK       I    between atoms: C5'_1033  and  C4'_1034 
REMARK       I    between atoms: C1'_1036  and  N1_1037 
REMARK       I    between atoms: C4_1042  and  N4_1043 
REMARK  205  A    between atoms: C2'_1047  and  O2'_1048 
REMARK  206  A    between atoms: C3'_1050  and  O3'_1051 
REMARK  207  A    between atoms: O3'_1051  and  P_1052 
REMARK  208  A    between atoms: P_1052  and  O5'_1055 
REMARK  209  A    between atoms: O5'_1055  and  C5'_1056 
REMARK  210  A    between atoms: C5'_1056  and  C4'_1057 
REMARK  211  A    between atoms: C1'_1059  and  N1_1060 
REMARK  212  A    between atoms: C2'_1069  and  O2'_1070 
REMARK  213  A    between atoms: C3'_1072  and  O3'_1073 
REMARK  214  A    between atoms: O3'_1073  and  P_1074 
REMARK  215  A    between atoms: P_1074  and  O5'_1077 
REMARK  216  A    between atoms: O5'_1077  and  C5'_1078 
REMARK  217  A    between atoms: C5'_1078  and  C4'_1079 
REMARK  218  A    between atoms: C1'_1081  and  N9_1082 
REMARK  219  A    between atoms: C2_1085  and  N2_1086 
REMARK  220  A    between atoms: C2'_1096  and  O2'_1097 
REMARK  221  A    between atoms: C3'_1099  and  O3'_1100 
REMARK  222  A    between atoms: O3'_1100  and  P_1101 
REMARK  223  A    between atoms: P_1101  and  O5'_1104 
REMARK  224  A    between atoms: O5'_1104  and  C5'_1105 
REMARK  225  A    between atoms: C5'_1105  and  C4'_1106 
REMARK  226  A    between atoms: C1'_1108  and  N9_1109 
REMARK  227  A    between atoms: C2_1112  and  N2_1113 
REMARK  228  A    between atoms: C2'_1123  and  O2'_1124 
REMARK  229  A    between atoms: C3'_1126  and  O3'_1127 
REMARK       I    between atoms: O3'_1127  and  P_1128 
REMARK       I    between atoms: P_1128  and  O5'_1131 
REMARK       I    between atoms: O5'_1131  and  C5'_1132 
REMARK       I    between atoms: C5'_1132  and  C4'_1133 
REMARK  230  A    between atoms: C1'_1135  and  N1_1136 
REMARK  231  A    between atoms: C4_1141  and  N4_1142 
REMARK       I    between atoms: C2'_1146  and  O2'_1147 
REMARK       I    between atoms: C3'_1149  and  O3'_1150 
REMARK       I    between atoms: O3'_1150  and  P_1151 
REMARK       I    between atoms: P_1151  and  O5'_1154 
REMARK       I    between atoms: O5'_1154  and  C5'_1155 
REMARK       I    between atoms: C5'_1155  and  C4'_1156 
REMARK       I    between atoms: C1'_1158  and  N1_1159 
REMARK       I    between atoms: C2'_1168  and  O2'_1169 
REMARK       I    between atoms: C3'_1171  and  O3'_1172 
REMARK       I    between atoms: O3'_1172  and  P_1173 
REMARK       I    between atoms: P_1173  and  O5'_1176 
REMARK       I    between atoms: O5'_1176  and  C5'_1177 
REMARK       I    between atoms: C5'_1177  and  C4'_1178 
REMARK       I    between atoms: C1'_1180  and  N1_1181 
REMARK       I    between atoms: C2'_1190  and  O2'_1191 
REMARK       I    between atoms: C3'_1193  and  O3'_1194 
REMARK       I    between atoms: O3'_1194  and  P_1195 
REMARK       I    between atoms: P_1195  and  O5'_1198 
REMARK       I    between atoms: O5'_1198  and  C5'_1199 
REMARK       I    between atoms: C5'_1199  and  C4'_1200 
REMARK       I    between atoms: C1'_1202  and  N9_1203 
REMARK       I    between atoms: C2_1206  and  N2_1207 
REMARK       I    between atoms: C2'_1217  and  O2'_1218 
REMARK       I    between atoms: C3'_1220  and  O3'_1221 
REMARK       I    between atoms: O3'_1221  and  P_1222 
REMARK       I    between atoms: P_1222  and  O5'_1225 
REMARK       I    between atoms: O5'_1225  and  C5'_1226 
REMARK       I    between atoms: C5'_1226  and  C4'_1227 
REMARK       I    between atoms: C1'_1229  and  N1_1230 
REMARK       I    between atoms: C2'_1239  and  O2'_1240 
REMARK       I    between atoms: C3'_1242  and  O3'_1243 
REMARK       I    between atoms: O3'_1243  and  P_1244 
REMARK  232  A    between atoms: P_1244  and  O5'_1247 
REMARK  233  A    between atoms: O5'_1247  and  C5'_1248 
REMARK  234  A    between atoms: C5'_1248  and  C4'_1249 
REMARK  235  A    between atoms: C1'_1251  and  N1_1252 
REMARK       I    between atoms: C4_1257  and  N4_1258 
REMARK  236  A    between atoms: C2'_1262  and  O2'_1263 
REMARK  237  A    between atoms: C3'_1265  and  O3'_1266 
REMARK  238  A    between atoms: O3'_1266  and  P_1267 
REMARK  239  A    between atoms: P_1267  and  O5'_1270 
REMARK  240  A    between atoms: O5'_1270  and  C5'_1271 
REMARK  241  A    between atoms: C5'_1271  and  C4'_1272 
REMARK  242  A    between atoms: C1'_1274  and  N1_1275 
REMARK       I    between atoms: C4_1280  and  N4_1281 
REMARK  243  A    between atoms: C2'_1285  and  O2'_1286 
REMARK  244  A    between atoms: C3'_1288  and  O3'_1289 
REMARK  245  A    between atoms: O3'_1289  and  P_1290 
REMARK  246  A    between atoms: P_1290  and  O5'_1293 
REMARK  247  A    between atoms: O5'_1293  and  C5'_1294 
REMARK  248  A    between atoms: C5'_1294  and  C4'_1295 
REMARK  249  A    between atoms: C1'_1297  and  N9_1298 
REMARK  250  A    between atoms: C6_1303  and  N6_1304 
REMARK  251  A    between atoms: C2'_1310  and  O2'_1311 
REMARK  252  A    between atoms: C3'_1313  and  O3'_1314 
ROOT
ATOM      1 'HO5   G A   1      -0.304  -0.380   0.065  1.00  0.00     0.209 HD
ATOM      2  O5'   G A   1       0.291  -0.063  -0.620  1.00  0.00    -0.398 OA
ENDROOT
BRANCH   2   3
ATOM      3  C5'   G A   1       1.613  -0.127  -0.080  1.00  0.00     0.198 C 
BRANCH   3   4
ATOM      4  C4'   G A   1       1.583   0.008   1.425  1.00  0.00     0.180 C 
ATOM      5  O4'   G A   1       0.538  -0.856   1.951  1.00  0.00    -0.353 OA
ATOM      6  C1'   G A   1       0.995  -1.501   3.126  1.00  0.00     0.262 C 
ATOM      7  C2'   G A   1       2.333  -0.868   3.506  1.00  0.00     0.199 C 
ATOM      8  C3'   G A   1       2.853  -0.431   2.142  1.00  0.00     0.198 C 
BRANCH   6   9
ATOM      9  N9    G A   1       1.075  -2.935   2.860  1.00  0.00    -0.293 N 
ATOM     10  C8    G A   1       0.467  -3.623   1.839  1.00  0.00     0.214 A 
ATOM     11  N7    G A   1       0.721  -4.903   1.857  1.00  0.00    -0.234 NA
ATOM     12  C5    G A   1       1.550  -5.071   2.959  1.00  0.00     0.173 A 
ATOM     13  C6    G A   1       2.154  -6.242   3.488  1.00  0.00     0.292 A 
ATOM     14  C4    G A   1       1.778  -3.865   3.588  1.00  0.00     0.187 A 
ATOM     15  N1    G A   1       2.917  -5.958   4.614  1.00  0.00    -0.153 N 
ATOM     16  O6    G A   1       2.074  -7.405   3.077  1.00  0.00    -0.265 OA
ATOM     17  C2    G A   1       3.080  -4.713   5.163  1.00  0.00     0.703 A 
ATOM     18  H1    G A   1       3.384  -6.737   5.054  1.00  0.00     0.187 HD
ATOM     19  N3    G A   1       2.525  -3.615   4.684  1.00  0.00    -0.044 NA
BRANCH  17  20
ATOM     20  N2    G A   1       3.854  -4.644   6.248  1.00  0.00    -0.233 N 
ATOM     21  H21   G A   1       4.005  -3.747   6.688  1.00  0.00     0.174 HD
ATOM     22  H22   G A   1       4.285  -5.475   6.627  1.00  0.00     0.174 HD
ENDBRANCH  17  20
ENDBRANCH   6   9
BRANCH   7  23
ATOM     23  O2'   G A   1       2.087   0.249   4.341  1.00  0.00    -0.388 OA
ATOM     24 'HO2   G A   1       2.856   0.816   4.270  1.00  0.00     0.210 HD
ENDBRANCH   7  23
BRANCH   8  25
ATOM     25  O3'   G A   1       3.795   0.634   2.241  1.00  0.00    -0.279 OA
BRANCH  25  26
ATOM     26  P     G A   2       4.900   0.838   1.089  1.00  0.00     0.408 P 
ATOM     27  OP2   G A   2       4.701  -0.201   0.047  1.00  0.00    -0.624 OA
ATOM     28  OP1   G A   2       4.869   2.273   0.707  1.00  0.00    -0.624 OA
BRANCH  26  29
ATOM     29  O5'   G A   2       6.283   0.547   1.825  1.00  0.00    -0.287 OA
BRANCH  29  30
ATOM     30  C5'   G A   2       6.877   1.516   2.690  1.00  0.00     0.216 C 
BRANCH  30  31
ATOM     31  C4'   G A   2       7.189   0.896   4.034  1.00  0.00     0.180 C 
ATOM     32  O4'   G A   2       6.084   0.044   4.437  1.00  0.00    -0.353 OA
ATOM     33  C1'   G A   2       6.583  -1.084   5.136  1.00  0.00     0.262 C 
ATOM     34  C2'   G A   2       8.097  -0.915   5.267  1.00  0.00     0.199 C 
ATOM     35  C3'   G A   2       8.400  -0.026   4.067  1.00  0.00     0.198 C 
BRANCH  33  36
ATOM     36  N9    G A   2       6.197  -2.289   4.409  1.00  0.00    -0.293 N 
ATOM     37  C4    G A   2       6.482  -3.585   4.767  1.00  0.00     0.187 A 
ATOM     38  C5    G A   2       5.922  -4.369   3.781  1.00  0.00     0.173 A 
ATOM     39  N3    G A   2       7.170  -3.971   5.861  1.00  0.00    -0.044 NA
ATOM     40  N7    G A   2       5.295  -3.583   2.823  1.00  0.00    -0.234 NA
ATOM     41  C6    G A   2       6.053  -5.780   3.874  1.00  0.00     0.292 A 
ATOM     42  C8    G A   2       5.485  -2.361   3.237  1.00  0.00     0.214 A 
ATOM     43  N1    G A   2       6.768  -6.152   5.006  1.00  0.00    -0.153 N 
ATOM     44  O6    G A   2       5.624  -6.648   3.107  1.00  0.00    -0.265 OA
ATOM     45  H1    G A   2       6.916  -7.139   5.153  1.00  0.00     0.187 HD
ATOM     46  C2    G A   2       7.287  -5.284   5.932  1.00  0.00     0.703 A 
BRANCH  46  47
ATOM     47  N2    G A   2       7.945  -5.836   6.954  1.00  0.00    -0.233 N 
ATOM     48  H22   G A   2       8.053  -6.837   7.018  1.00  0.00     0.174 HD
ATOM     49  H21   G A   2       8.345  -5.235   7.660  1.00  0.00     0.174 HD
ENDBRANCH  46  47
ENDBRANCH  33  36
BRANCH  34  50
ATOM     50  O2'   G A   2       8.376  -0.245   6.483  1.00  0.00    -0.388 OA
ATOM     51 'HO2   G A   2       9.045   0.411   6.286  1.00  0.00     0.210 HD
ENDBRANCH  34  50
BRANCH  35  52
ATOM     52  O3'   G A   2       9.615   0.701   4.223  1.00  0.00    -0.279 OA
BRANCH  52  53
ATOM     53  P     G A   3      10.998   0.069   3.697  1.00  0.00     0.408 P 
ATOM     54  OP1   G A   3      12.096   0.936   4.198  1.00  0.00    -0.624 OA
ATOM     55  OP2   G A   3      10.873  -0.187   2.240  1.00  0.00    -0.624 OA
BRANCH  53  56
ATOM     56  O5'   G A   3      11.094  -1.334   4.447  1.00  0.00    -0.287 OA
BRANCH  56  57
ATOM     57  C5'   G A   3      11.287  -1.402   5.859  1.00  0.00     0.216 C 
BRANCH  57  58
ATOM     58  C4'   G A   3      11.619  -2.816   6.275  1.00  0.00     0.180 C 
ATOM     59  O4'   G A   3      10.435  -3.648   6.152  1.00  0.00    -0.353 OA
ATOM     60  C1'   G A   3      10.819  -4.970   5.812  1.00  0.00     0.262 C 
ATOM     61  C2'   G A   3      12.346  -4.998   5.719  1.00  0.00     0.199 C 
ATOM     62  C3'   G A   3      12.649  -3.535   5.418  1.00  0.00     0.198 C 
BRANCH  60  63
ATOM     63  N9    G A   3      10.158  -5.342   4.565  1.00  0.00    -0.293 N 
ATOM     64  C4    G A   3      10.075  -6.605   4.033  1.00  0.00     0.187 A 
ATOM     65  N3    G A   3      10.588  -7.729   4.577  1.00  0.00    -0.044 NA
ATOM     66  C5    G A   3       9.375  -6.462   2.855  1.00  0.00     0.173 A 
ATOM     67  C2    G A   3      10.351  -8.791   3.829  1.00  0.00     0.703 A 
ATOM     68  N1    G A   3       9.666  -8.757   2.642  1.00  0.00    -0.153 N 
ATOM     69  H1    G A   3       9.540  -9.627   2.147  1.00  0.00     0.187 HD
ATOM     70  C6    G A   3       9.128  -7.614   2.063  1.00  0.00     0.292 A 
ATOM     71  O6    G A   3       8.526  -7.697   0.986  1.00  0.00    -0.265 OA
ATOM     72  N7    G A   3       9.020  -5.135   2.651  1.00  0.00    -0.234 NA
ATOM     73  C8    G A   3       9.504  -4.510   3.689  1.00  0.00     0.214 A 
BRANCH  67  74
ATOM     74  N2    G A   3      10.794  -9.988   4.221  1.00  0.00    -0.233 N 
ATOM     75  H21   G A   3      11.306 -10.064   5.088  1.00  0.00     0.174 HD
ATOM     76  H22   G A   3      10.633 -10.806   3.653  1.00  0.00     0.174 HD
ENDBRANCH  67  74
ENDBRANCH  60  63
BRANCH  61  77
ATOM     77  O2'   G A   3      12.867  -5.379   6.978  1.00  0.00    -0.388 OA
ATOM     78 'HO2   G A   3      13.447  -4.672   7.261  1.00  0.00     0.210 HD
ENDBRANCH  61  77
BRANCH  62  79
ATOM     79  O3'   G A   3      13.981  -3.170   5.766  1.00  0.00    -0.279 OA
BRANCH  79  80
ATOM     80  P     C A   4      15.173  -3.400   4.710  1.00  0.00     0.408 P 
ATOM     81  OP1   C A   4      16.422  -2.899   5.338  1.00  0.00    -0.624 OA
ATOM     82  OP2   C A   4      14.747  -2.861   3.393  1.00  0.00    -0.624 OA
BRANCH  80  83
ATOM     83  O5'   C A   4      15.280  -4.985   4.586  1.00  0.00    -0.287 OA
BRANCH  83  84
ATOM     84  C5'   C A   4      15.544  -5.794   5.732  1.00  0.00     0.216 C 
BRANCH  84  85
ATOM     85  C4'   C A   4      15.446  -7.259   5.373  1.00  0.00     0.180 C 
ATOM     86  C3'   C A   4      16.328  -7.715   4.222  1.00  0.00     0.198 C 
ATOM     87  C2'   C A   4      15.626  -8.987   3.755  1.00  0.00     0.199 C 
ATOM     88  C1'   C A   4      14.155  -8.629   3.983  1.00  0.00     0.264 C 
ATOM     89  O4'   C A   4      14.106  -7.557   4.909  1.00  0.00    -0.353 OA
BRANCH  86  90
ATOM     90  O3'   C A   4      17.665  -7.955   4.654  1.00  0.00    -0.279 OA
BRANCH  90  91
ATOM     91  P     A A   5      18.896  -7.656   3.661  1.00  0.00     0.408 P 
ATOM     92  OP2   A A   5      18.391  -6.917   2.475  1.00  0.00    -0.624 OA
ATOM     93  OP1   A A   5      19.983  -7.065   4.483  1.00  0.00    -0.624 OA
BRANCH  91  94
ATOM     94  O5'   A A   5      19.372  -9.105   3.196  1.00  0.00    -0.287 OA
BRANCH  94  95
ATOM     95  C5'   A A   5      19.365  -9.482   1.819  1.00  0.00     0.216 C 
BRANCH  95  96
ATOM     96  C4'   A A   5      18.665 -10.809   1.648  1.00  0.00     0.180 C 
ATOM     97  O4'   A A   5      17.233 -10.609   1.810  1.00  0.00    -0.353 OA
ATOM     98  C1'   A A   5      16.531 -11.364   0.837  1.00  0.00     0.262 C 
ATOM     99  C2'   A A   5      17.546 -12.286   0.164  1.00  0.00     0.199 C 
ATOM    100  C3'   A A   5      18.813 -11.449   0.274  1.00  0.00     0.198 C 
BRANCH  98 101
ATOM    101  N9    A A   5      15.882 -10.434  -0.087  1.00  0.00    -0.294 N 
ATOM    102  C8    A A   5      16.027  -9.070  -0.154  1.00  0.00     0.214 A 
ATOM    103  N7    A A   5      15.313  -8.509  -1.099  1.00  0.00    -0.236 NA
ATOM    104  C5    A A   5      14.652  -9.575  -1.694  1.00  0.00     0.149 A 
ATOM    105  C6    A A   5      13.739  -9.645  -2.762  1.00  0.00     0.155 A 
ATOM    106  C4    A A   5      14.992 -10.766  -1.080  1.00  0.00     0.167 A 
ATOM    107  N1    A A   5      13.264 -10.863  -3.102  1.00  0.00    -0.222 NA
ATOM    108  C2    A A   5      13.687 -11.931  -2.413  1.00  0.00     0.237 A 
ATOM    109  N3    A A   5      14.542 -11.992  -1.395  1.00  0.00    -0.222 NA
BRANCH 105 110
ATOM    110  N6    A A   5      13.321  -8.584  -3.451  1.00  0.00    -0.382 N 
ATOM    111  H62   A A   5      12.669  -8.702  -4.214  1.00  0.00     0.157 HD
ATOM    112  H61   A A   5      13.664  -7.665  -3.214  1.00  0.00     0.157 HD
ENDBRANCH 105 110
ENDBRANCH  98 101
BRANCH  99 113
ATOM    113  O2'   A A   5      17.654 -13.478   0.920  1.00  0.00    -0.388 OA
ATOM    114 'HO2   A A   5      18.589 -13.675   0.987  1.00  0.00     0.210 HD
ENDBRANCH  99 113
BRANCH 100 115
ATOM    115  O3'   A A   5      19.998 -12.235   0.187  1.00  0.00    -0.279 OA
BRANCH 115 116
ATOM    116  P     G A   6      20.941 -12.119  -1.111  1.00  0.00     0.408 P 
ATOM    117  OP2   G A   6      20.910 -10.714  -1.589  1.00  0.00    -0.624 OA
ATOM    118  OP1   G A   6      22.240 -12.750  -0.769  1.00  0.00    -0.624 OA
BRANCH 116 119
ATOM    119  O5'   G A   6      20.214 -13.031  -2.196  1.00  0.00    -0.287 OA
BRANCH 119 120
ATOM    120  C5'   G A   6      19.828 -14.369  -1.890  1.00  0.00     0.216 C 
BRANCH 120 121
ATOM    121  C4'   G A   6      19.153 -15.004  -3.084  1.00  0.00     0.180 C 
ATOM    122  C3'   G A   6      19.661 -14.557  -4.446  1.00  0.00     0.198 C 
ATOM    123  C2'   G A   6      18.470 -14.856  -5.347  1.00  0.00     0.199 C 
ATOM    124  C1'   G A   6      17.306 -14.477  -4.431  1.00  0.00     0.262 C 
ATOM    125  O4'   G A   6      17.750 -14.627  -3.093  1.00  0.00    -0.353 OA
BRANCH 122 126
ATOM    126  O3'   G A   6      20.832 -15.270  -4.834  1.00  0.00    -0.279 OA
BRANCH 126 127
ATOM    127  P     G A   7      21.840 -14.624  -5.909  1.00  0.00     0.408 P 
ATOM    128  OP1   G A   7      23.034 -15.504  -5.979  1.00  0.00    -0.624 OA
ATOM    129  OP2   G A   7      22.011 -13.183  -5.592  1.00  0.00    -0.624 OA
BRANCH 127 130
ATOM    130  O5'   G A   7      21.057 -14.741  -7.292  1.00  0.00    -0.287 OA
BRANCH 130 131
ATOM    131  C5'   G A   7      20.784 -16.014  -7.875  1.00  0.00     0.216 C 
BRANCH 131 132
ATOM    132  C4'   G A   7      19.807 -15.868  -9.019  1.00  0.00     0.180 C 
ATOM    133  C3'   G A   7      20.298 -15.059 -10.210  1.00  0.00     0.198 C 
ATOM    134  C2'   G A   7      18.993 -14.620 -10.865  1.00  0.00     0.199 C 
ATOM    135  C1'   G A   7      18.102 -14.387  -9.643  1.00  0.00     0.262 C 
ATOM    136  O4'   G A   7      18.640 -15.135  -8.565  1.00  0.00    -0.353 OA
BRANCH 133 137
ATOM    137  O3'   G A   7      21.110 -15.843 -11.080  1.00  0.00    -0.279 OA
BRANCH 137 138
ATOM    138  P     G A   8      22.173 -15.123 -12.049  1.00  0.00     0.408 P 
ATOM    139  OP1   G A   8      22.978 -16.194 -12.690  1.00  0.00    -0.624 OA
ATOM    140  OP2   G A   8      22.858 -14.048 -11.287  1.00  0.00    -0.624 OA
BRANCH 138 141
ATOM    141  O5'   G A   8      21.272 -14.443 -13.175  1.00  0.00    -0.287 OA
BRANCH 141 142
ATOM    142  C5'   G A   8      20.580 -15.234 -14.139  1.00  0.00     0.216 C 
BRANCH 142 143
ATOM    143  C4'   G A   8      19.784 -14.348 -15.069  1.00  0.00     0.180 C 
ATOM    144  C3'   G A   8      20.576 -13.268 -15.790  1.00  0.00     0.198 C 
ATOM    145  C2'   G A   8      19.502 -12.235 -16.112  1.00  0.00     0.199 C 
ATOM    146  C1'   G A   8      18.616 -12.324 -14.869  1.00  0.00     0.262 C 
ATOM    147  O4'   G A   8      18.802 -13.608 -14.297  1.00  0.00    -0.353 OA
BRANCH 144 148
ATOM    148  O3'   G A   8      21.212 -13.775 -16.961  1.00  0.00    -0.279 OA
BRANCH 148 149
ATOM    149  P     G A   9      22.474 -12.998 -17.585  1.00  0.00     0.408 P 
ATOM    150  OP1   G A   9      22.897 -13.749 -18.795  1.00  0.00    -0.624 OA
ATOM    151  OP2   G A   9      23.456 -12.746 -16.500  1.00  0.00    -0.624 OA
BRANCH 149 152
ATOM    152  O5'   G A   9      21.876 -11.597 -18.055  1.00  0.00    -0.287 OA
BRANCH 152 153
ATOM    153  C5'   G A   9      21.023 -11.508 -19.196  1.00  0.00     0.216 C 
BRANCH 153 154
ATOM    154  C4'   G A   9      20.616 -10.071 -19.432  1.00  0.00     0.180 C 
ATOM    155  O4'   G A   9      19.907  -9.580 -18.268  1.00  0.00    -0.353 OA
ATOM    156  C1'   G A   9      20.128  -8.189 -18.132  1.00  0.00     0.262 C 
ATOM    157  C2'   G A   9      21.120  -7.754 -19.215  1.00  0.00     0.199 C 
ATOM    158  C3'   G A   9      21.759  -9.084 -19.608  1.00  0.00     0.198 C 
BRANCH 156 159
ATOM    159  N9    G A   9      20.589  -7.929 -16.772  1.00  0.00    -0.293 N 
ATOM    160  C8    G A   9      21.179  -8.821 -15.909  1.00  0.00     0.214 A 
ATOM    161  N7    G A   9      21.468  -8.301 -14.748  1.00  0.00    -0.234 NA
ATOM    162  C5    G A   9      21.049  -6.981 -14.852  1.00  0.00     0.173 A 
ATOM    163  C4    G A   9      20.507  -6.736 -16.096  1.00  0.00     0.187 A 
ATOM    164  C6    G A   9      21.100  -5.921 -13.909  1.00  0.00     0.292 A 
ATOM    165  N3    G A   9      19.995  -5.585 -16.580  1.00  0.00    -0.044 NA
ATOM    166  C2    G A   9      20.049  -4.610 -15.691  1.00  0.00     0.703 A 
ATOM    167  N1    G A   9      20.564  -4.749 -14.429  1.00  0.00    -0.153 N 
ATOM    168  H1    G A   9      20.554  -3.940 -13.827  1.00  0.00     0.187 HD
ATOM    169  O6    G A   9      21.542  -5.936 -12.755  1.00  0.00    -0.265 OA
BRANCH 166 170
ATOM    170  N2    G A   9      19.583  -3.400 -16.008  1.00  0.00    -0.233 N 
ATOM    171  H21   G A   9      19.194  -3.243 -16.926  1.00  0.00     0.174 HD
ATOM    172  H22   G A   9      19.621  -2.646 -15.335  1.00  0.00     0.174 HD
ENDBRANCH 166 170
ENDBRANCH 156 159
BRANCH 157 173
ATOM    173  O2'   G A   9      20.389  -7.201 -20.294  1.00  0.00    -0.388 OA
ATOM    174 'HO2   G A   9      20.880  -7.401 -21.091  1.00  0.00     0.210 HD
ENDBRANCH 157 173
BRANCH 158 175
ATOM    175  O3'   G A   9      22.238  -9.081 -20.951  1.00  0.00    -0.279 OA
BRANCH 175 176
ATOM    176  P     G A  10      23.636  -8.367 -21.301  1.00  0.00     0.408 P 
ATOM    177  OP1   G A  10      23.919  -8.638 -22.733  1.00  0.00    -0.624 OA
ATOM    178  OP2   G A  10      24.634  -8.753 -20.271  1.00  0.00    -0.624 OA
BRANCH 176 179
ATOM    179  O5'   G A  10      23.324  -6.812 -21.147  1.00  0.00    -0.287 OA
BRANCH 179 180
ATOM    180  C5'   G A  10      24.347  -5.890 -20.777  1.00  0.00     0.216 C 
BRANCH 180 181
ATOM    181  C4'   G A  10      23.751  -4.527 -20.513  1.00  0.00     0.180 C 
ATOM    182  O4'   G A  10      22.758  -4.648 -19.458  1.00  0.00    -0.353 OA
ATOM    183  C1'   G A  10      22.882  -3.566 -18.553  1.00  0.00     0.262 C 
ATOM    184  C2'   G A  10      23.860  -2.564 -19.164  1.00  0.00     0.199 C 
ATOM    185  C3'   G A  10      24.736  -3.478 -20.014  1.00  0.00     0.198 C 
BRANCH 183 186
ATOM    186  N9    G A  10      23.305  -4.098 -17.261  1.00  0.00    -0.293 N 
ATOM    187  C4    G A  10      23.399  -3.404 -16.078  1.00  0.00     0.187 A 
ATOM    188  N3    G A  10      23.122  -2.094 -15.901  1.00  0.00    -0.044 NA
ATOM    189  C5    G A  10      23.825  -4.326 -15.146  1.00  0.00     0.173 A 
ATOM    190  C2    G A  10      23.301  -1.718 -14.647  1.00  0.00     0.703 A 
ATOM    191  N1    G A  10      23.720  -2.555 -13.646  1.00  0.00    -0.153 N 
ATOM    192  C6    G A  10      24.016  -3.903 -13.804  1.00  0.00     0.292 A 
ATOM    193  H1    G A  10      23.823  -2.164 -12.722  1.00  0.00     0.187 HD
ATOM    194  O6    G A  10      24.395  -4.566 -12.833  1.00  0.00    -0.265 OA
ATOM    195  N7    G A  10      23.999  -5.573 -15.730  1.00  0.00    -0.234 NA
ATOM    196  C8    G A  10      23.681  -5.389 -16.981  1.00  0.00     0.214 A 
BRANCH 190 197
ATOM    197  N2    G A  10      23.069  -0.451 -14.294  1.00  0.00    -0.233 N 
ATOM    198  H22   G A  10      23.202  -0.154 -13.337  1.00  0.00     0.174 HD
ATOM    199  H21   G A  10      22.759   0.208 -14.992  1.00  0.00     0.174 HD
ENDBRANCH 190 197
ENDBRANCH 183 186
BRANCH 184 200
ATOM    200  O2'   G A  10      23.135  -1.657 -19.973  1.00  0.00    -0.388 OA
ATOM    201 'HO2   G A  10      23.478  -1.747 -20.863  1.00  0.00     0.210 HD
ENDBRANCH 184 200
BRANCH 185 202
ATOM    202  O3'   G A  10      25.346  -2.786 -21.100  1.00  0.00    -0.279 OA
BRANCH 202 203
ATOM    203  P     U A  11      26.901  -2.381 -21.019  1.00  0.00     0.408 P 
ATOM    204  OP2   U A  11      27.690  -3.609 -20.746  1.00  0.00    -0.624 OA
ATOM    205  OP1   U A  11      27.209  -1.562 -22.219  1.00  0.00    -0.624 OA
BRANCH 203 206
ATOM    206  O5'   U A  11      26.987  -1.440 -19.737  1.00  0.00    -0.287 OA
BRANCH 206 207
ATOM    207  C5'   U A  11      26.292  -0.195 -19.690  1.00  0.00     0.216 C 
BRANCH 207 208
ATOM    208  C4'   U A  11      26.551   0.495 -18.372  1.00  0.00     0.180 C 
ATOM    209  C3'   U A  11      27.984   0.409 -17.865  1.00  0.00     0.198 C 
ATOM    210  C2'   U A  11      27.807   0.508 -16.356  1.00  0.00     0.199 C 
ATOM    211  C1'   U A  11      26.526  -0.302 -16.161  1.00  0.00     0.264 C 
ATOM    212  O4'   U A  11      25.753  -0.150 -17.339  1.00  0.00    -0.353 OA
BRANCH 209 213
ATOM    213  O3'   U A  11      28.795   1.457 -18.389  1.00  0.00    -0.279 OA
BRANCH 213 214
ATOM    214  P     U A  12      30.365   1.207 -18.629  1.00  0.00     0.408 P 
ATOM    215  OP1   U A  12      31.024   2.537 -18.653  1.00  0.00    -0.624 OA
ATOM    216  OP2   U A  12      30.516   0.293 -19.789  1.00  0.00    -0.624 OA
BRANCH 214 217
ATOM    217  O5'   U A  12      30.832   0.429 -17.317  1.00  0.00    -0.287 OA
BRANCH 217 218
ATOM    218  C5'   U A  12      32.168   0.543 -16.825  1.00  0.00     0.216 C 
BRANCH 218 219
ATOM    219  C4'   U A  12      32.183   1.340 -15.541  1.00  0.00     0.180 C 
ATOM    220  O4'   U A  12      32.073   2.740 -15.896  1.00  0.00    -0.353 OA
ATOM    221  C1'   U A  12      31.161   3.375 -15.036  1.00  0.00     0.264 C 
ATOM    222  C2'   U A  12      30.191   2.308 -14.530  1.00  0.00     0.199 C 
ATOM    223  C3'   U A  12      31.034   1.027 -14.578  1.00  0.00     0.198 C 
BRANCH 221 224
ATOM    224  N1    U A  12      30.513   4.462 -15.785  1.00  0.00    -0.280 N 
ATOM    225  C6    U A  12      29.560   4.201 -16.743  1.00  0.00     0.104 A 
ATOM    226  C5    U A  12      28.962   5.171 -17.440  1.00  0.00     0.092 A 
ATOM    227  C4    U A  12      29.304   6.538 -17.202  1.00  0.00     0.250 A 
ATOM    228  O4    U A  12      28.827   7.515 -17.779  1.00  0.00    -0.268 OA
ATOM    229  N3    U A  12      30.261   6.728 -16.232  1.00  0.00    -0.275 N 
ATOM    230  H3    U A  12      30.527   7.681 -16.040  1.00  0.00     0.173 HD
ATOM    231  C2    U A  12      30.895   5.760 -15.497  1.00  0.00     0.331 A 
ATOM    232  O2    U A  12      31.732   6.034 -14.655  1.00  0.00    -0.246 OA
ENDBRANCH 221 224
BRANCH 222 233
ATOM    233  O2'   U A  12      29.836   2.632 -13.199  1.00  0.00    -0.388 OA
ATOM    234 'HO2   U A  12      29.866   1.817 -12.697  1.00  0.00     0.210 HD
ENDBRANCH 222 233
BRANCH 223 235
ATOM    235  O3'   U A  12      31.470   0.625 -13.271  1.00  0.00    -0.279 OA
BRANCH 235 236
ATOM    236  P     A A  13      32.808   1.247 -12.620  1.00  0.00     0.408 P 
ATOM    237  OP2   A A  13      33.975   0.482 -13.129  1.00  0.00    -0.624 OA
ATOM    238  OP1   A A  13      32.778   2.722 -12.770  1.00  0.00    -0.624 OA
BRANCH 236 239
ATOM    239  O5'   A A  13      32.659   0.922 -11.067  1.00  0.00    -0.287 OA
BRANCH 239 240
ATOM    240  C5'   A A  13      31.415   1.105 -10.390  1.00  0.00     0.216 C 
BRANCH 240 241
ATOM    241  C4'   A A  13      31.145  -0.062  -9.467  1.00  0.00     0.180 C 
ATOM    242  O4'   A A  13      30.551  -1.140 -10.246  1.00  0.00    -0.353 OA
ATOM    243  C1'   A A  13      31.382  -2.281 -10.192  1.00  0.00     0.262 C 
ATOM    244  C2'   A A  13      32.762  -1.788  -9.769  1.00  0.00     0.199 C 
ATOM    245  C3'   A A  13      32.381  -0.670  -8.807  1.00  0.00     0.198 C 
BRANCH 243 246
ATOM    246  N9    A A  13      31.347  -2.940 -11.497  1.00  0.00    -0.294 N 
ATOM    247  C4    A A  13      31.322  -4.295 -11.720  1.00  0.00     0.167 A 
ATOM    248  C5    A A  13      31.290  -4.451 -13.094  1.00  0.00     0.149 A 
ATOM    249  N3    A A  13      31.326  -5.272 -10.798  1.00  0.00    -0.222 NA
ATOM    250  C6    A A  13      31.258  -5.768 -13.585  1.00  0.00     0.155 A 
ATOM    251  N7    A A  13      31.296  -3.216 -13.728  1.00  0.00    -0.236 NA
ATOM    252  N1    A A  13      31.262  -6.774 -12.685  1.00  0.00    -0.222 NA
ATOM    253  C2    A A  13      31.295  -6.468 -11.382  1.00  0.00     0.237 A 
ATOM    254  C8    A A  13      31.330  -2.355 -12.740  1.00  0.00     0.214 A 
BRANCH 250 255
ATOM    255  N6    A A  13      31.224  -6.075 -14.881  1.00  0.00    -0.382 N 
ATOM    256  H62   A A  13      31.198  -7.044 -15.166  1.00  0.00     0.157 HD
ATOM    257  H61   A A  13      31.219  -5.338 -15.573  1.00  0.00     0.157 HD
ENDBRANCH 250 255
ENDBRANCH 243 246
BRANCH 244 258
ATOM    258  O2'   A A  13      33.435  -2.837  -9.097  1.00  0.00    -0.388 OA
ATOM    259 'HO2   A A  13      33.300  -2.691  -8.160  1.00  0.00     0.210 HD
ENDBRANCH 244 258
BRANCH 245 260
ATOM    260  O3'   A A  13      32.097  -1.169  -7.501  1.00  0.00    -0.279 OA
BRANCH 260 261
ATOM    261  P     U A  14      31.714  -0.150  -6.316  1.00  0.00     0.408 P 
ATOM    262  OP1   U A  14      32.056   1.223  -6.769  1.00  0.00    -0.624 OA
ATOM    263  OP2   U A  14      32.301  -0.673  -5.056  1.00  0.00    -0.624 OA
BRANCH 261 264
ATOM    264  O5'   U A  14      30.128  -0.267  -6.209  1.00  0.00    -0.287 OA
BRANCH 264 265
ATOM    265  C5'   U A  14      29.326   0.863  -5.867  1.00  0.00     0.216 C 
BRANCH 265 266
ATOM    266  C4'   U A  14      27.884   0.612  -6.242  1.00  0.00     0.180 C 
ATOM    267  O4'   U A  14      27.839   0.134  -7.618  1.00  0.00    -0.353 OA
ATOM    268  C1'   U A  14      27.039  -1.023  -7.677  1.00  0.00     0.264 C 
ATOM    269  C2'   U A  14      27.226  -1.684  -6.317  1.00  0.00     0.199 C 
ATOM    270  C3'   U A  14      27.169  -0.459  -5.413  1.00  0.00     0.198 C 
BRANCH 268 271
ATOM    271  N1    U A  14      27.442  -1.820  -8.846  1.00  0.00    -0.280 N 
ATOM    272  C2    U A  14      27.120  -1.319 -10.095  1.00  0.00     0.331 A 
ATOM    273  O2    U A  14      26.537  -0.263 -10.255  1.00  0.00    -0.246 OA
ATOM    274  N3    U A  14      27.502  -2.103 -11.152  1.00  0.00    -0.275 N 
ATOM    275  C4    U A  14      28.157  -3.311 -11.094  1.00  0.00     0.250 A 
ATOM    276  H3    U A  14      27.287  -1.745 -12.071  1.00  0.00     0.173 HD
ATOM    277  O4    U A  14      28.396  -3.919 -12.137  1.00  0.00    -0.268 OA
ATOM    278  C5    U A  14      28.461  -3.760  -9.771  1.00  0.00     0.092 A 
ATOM    279  C6    U A  14      28.106  -3.021  -8.715  1.00  0.00     0.104 A 
ENDBRANCH 268 271
BRANCH 269 280
ATOM    280  O2'   U A  14      26.139  -2.557  -6.075  1.00  0.00    -0.388 OA
ATOM    281 'HO2   U A  14      25.548  -2.093  -5.479  1.00  0.00     0.210 HD
ENDBRANCH 269 280
BRANCH 270 282
ATOM    282  O3'   U A  14      25.820  -0.099  -5.125  1.00  0.00    -0.279 OA
BRANCH 282 283
ATOM    283  P     C A  15      25.500   0.986  -3.981  1.00  0.00     0.408 P 
ATOM    284  OP1   C A  15      26.605   1.978  -3.958  1.00  0.00    -0.624 OA
ATOM    285  OP2   C A  15      25.150   0.252  -2.738  1.00  0.00    -0.624 OA
BRANCH 283 286
ATOM    286  O5'   C A  15      24.186   1.718  -4.511  1.00  0.00    -0.287 OA
BRANCH 286 287
ATOM    287  C5'   C A  15      23.185   1.002  -5.235  1.00  0.00     0.216 C 
BRANCH 287 288
ATOM    288  C4'   C A  15      23.032   1.581  -6.623  1.00  0.00     0.180 C 
ATOM    289  C3'   C A  15      21.740   1.219  -7.343  1.00  0.00     0.198 C 
ATOM    290  C2'   C A  15      22.131   1.363  -8.808  1.00  0.00     0.199 C 
ATOM    291  C1'   C A  15      23.565   0.833  -8.786  1.00  0.00     0.264 C 
ATOM    292  O4'   C A  15      24.077   1.046  -7.480  1.00  0.00    -0.353 OA
BRANCH 289 293
ATOM    293  O3'   C A  15      20.672   2.088  -6.975  1.00  0.00    -0.279 OA
BRANCH 293 294
ATOM    294  P     C A  16      19.151   1.578  -7.090  1.00  0.00     0.408 P 
ATOM    295  OP1   C A  16      18.276   2.663  -6.578  1.00  0.00    -0.624 OA
ATOM    296  OP2   C A  16      19.065   0.221  -6.490  1.00  0.00    -0.624 OA
BRANCH 294 297
ATOM    297  O5'   C A  16      18.908   1.439  -8.659  1.00  0.00    -0.287 OA
BRANCH 297 298
ATOM    298  C5'   C A  16      18.971   2.579  -9.515  1.00  0.00     0.216 C 
BRANCH 298 299
ATOM    299  C4'   C A  16      18.547   2.203 -10.916  1.00  0.00     0.180 C 
ATOM    300  C3'   C A  16      17.385   1.223 -11.009  1.00  0.00     0.198 C 
ATOM    301  C2'   C A  16      17.624   0.565 -12.362  1.00  0.00     0.199 C 
ATOM    302  C1'   C A  16      19.148   0.460 -12.371  1.00  0.00     0.264 C 
ATOM    303  O4'   C A  16      19.649   1.522 -11.577  1.00  0.00    -0.353 OA
BRANCH 300 304
ATOM    304  O3'   C A  16      16.128   1.891 -10.939  1.00  0.00    -0.279 OA
BRANCH 304 305
ATOM    305  P     C A  17      14.859   1.139 -10.296  1.00  0.00     0.408 P 
ATOM    306  OP1   C A  17      13.794   2.155 -10.099  1.00  0.00    -0.624 OA
ATOM    307  OP2   C A  17      15.322   0.329  -9.141  1.00  0.00    -0.624 OA
BRANCH 305 308
ATOM    308  O5'   C A  17      14.385   0.138 -11.442  1.00  0.00    -0.287 OA
BRANCH 308 309
ATOM    309  C5'   C A  17      13.987   0.623 -12.723  1.00  0.00     0.216 C 
BRANCH 309 310
ATOM    310  C4'   C A  17      13.722  -0.532 -13.660  1.00  0.00     0.180 C 
ATOM    311  C3'   C A  17      12.907  -1.678 -13.076  1.00  0.00     0.198 C 
ATOM    312  C2'   C A  17      13.350  -2.858 -13.931  1.00  0.00     0.199 C 
ATOM    313  C1'   C A  17      14.837  -2.550 -14.108  1.00  0.00     0.264 C 
ATOM    314  O4'   C A  17      14.989  -1.143 -14.029  1.00  0.00    -0.353 OA
BRANCH 311 315
ATOM    315  O3'   C A  17      11.507  -1.430 -13.169  1.00  0.00    -0.279 OA
BRANCH 315 316
ATOM    316  P     C A  18      10.505  -2.097 -12.102  1.00  0.00     0.408 P 
ATOM    317  OP1   C A  18       9.176  -1.459 -12.281  1.00  0.00    -0.624 OA
ATOM    318  OP2   C A  18      11.154  -2.078 -10.765  1.00  0.00    -0.624 OA
BRANCH 316 319
ATOM    319  O5'   C A  18      10.395  -3.616 -12.573  1.00  0.00    -0.287 OA
BRANCH 319 320
ATOM    320  C5'   C A  18       9.880  -3.950 -13.861  1.00  0.00     0.216 C 
BRANCH 320 321
ATOM    321  C4'   C A  18       9.971  -5.441 -14.089  1.00  0.00     0.180 C 
ATOM    322  C3'   C A  18       9.488  -6.312 -12.937  1.00  0.00     0.198 C 
ATOM    323  C2'   C A  18      10.270  -7.600 -13.158  1.00  0.00     0.199 C 
ATOM    324  C1'   C A  18      11.619  -7.046 -13.614  1.00  0.00     0.264 C 
ATOM    325  O4'   C A  18      11.367  -5.809 -14.261  1.00  0.00    -0.353 OA
BRANCH 322 326
ATOM    326  O3'   C A  18       8.078  -6.511 -12.980  1.00  0.00    -0.279 OA
BRANCH 326 327
ATOM    327  P     C A  19       7.261  -6.746 -11.614  1.00  0.00     0.408 P 
ATOM    328  OP1   C A  19       5.820  -6.563 -11.921  1.00  0.00    -0.624 OA
ATOM    329  OP2   C A  19       7.890  -5.937 -10.538  1.00  0.00    -0.624 OA
BRANCH 327 330
ATOM    330  O5'   C A  19       7.505  -8.285 -11.279  1.00  0.00    -0.287 OA
BRANCH 330 331
ATOM    331  C5'   C A  19       6.975  -9.311 -12.115  1.00  0.00     0.216 C 
BRANCH 331 332
ATOM    332  C4'   C A  19       7.562 -10.651 -11.735  1.00  0.00     0.180 C 
ATOM    333  O4'   C A  19       9.005 -10.606 -11.912  1.00  0.00    -0.353 OA
ATOM    334  C1'   C A  19       9.637 -11.343 -10.878  1.00  0.00     0.264 C 
ATOM    335  C2'   C A  19       8.535 -12.028 -10.070  1.00  0.00     0.199 C 
ATOM    336  C3'   C A  19       7.377 -11.062 -10.281  1.00  0.00     0.198 C 
BRANCH 334 337
ATOM    337  N1    C A  19      10.462 -10.419 -10.082  1.00  0.00    -0.278 N 
ATOM    338  C6    C A  19      10.154  -9.089 -10.009  1.00  0.00     0.102 A 
ATOM    339  C5    C A  19      10.899  -8.246  -9.284  1.00  0.00     0.067 A 
ATOM    340  C4    C A  19      12.020  -8.790  -8.593  1.00  0.00     0.128 A 
ATOM    341  N3    C A  19      12.327 -10.086  -8.656  1.00  0.00    -0.177 NA
ATOM    342  C2    C A  19      11.567 -10.925  -9.395  1.00  0.00     0.352 A 
ATOM    343  O2    C A  19      11.825 -12.134  -9.480  1.00  0.00    -0.244 OA
BRANCH 340 344
ATOM    344  N4    C A  19      12.799  -8.001  -7.854  1.00  0.00    -0.384 N 
ATOM    345  H42   C A  19      13.590  -8.394  -7.363  1.00  0.00     0.157 HD
ATOM    346  H41   C A  19      12.600  -7.015  -7.781  1.00  0.00     0.157 HD
ENDBRANCH 340 344
ENDBRANCH 334 337
BRANCH 335 347
ATOM    347  O2'   C A  19       8.263 -13.290 -10.650  1.00  0.00    -0.388 OA
ATOM    348 'HO2   C A  19       7.357 -13.261 -10.960  1.00  0.00     0.210 HD
ENDBRANCH 335 347
BRANCH 336 349
ATOM    349  O3'   C A  19       6.108 -11.672 -10.061  1.00  0.00    -0.279 OA
BRANCH 349 350
ATOM    350  P     U A  20       5.467 -11.671  -8.585  1.00  0.00     0.408 P 
ATOM    351  OP2   U A  20       5.709 -10.342  -7.967  1.00  0.00    -0.624 OA
ATOM    352  OP1   U A  20       4.077 -12.181  -8.705  1.00  0.00    -0.624 OA
BRANCH 350 353
ATOM    353  O5'   U A  20       6.326 -12.752  -7.790  1.00  0.00    -0.287 OA
BRANCH 353 354
ATOM    354  C5'   U A  20       6.463 -14.086  -8.279  1.00  0.00     0.216 C 
BRANCH 354 355
ATOM    355  C4'   U A  20       7.422 -14.866  -7.410  1.00  0.00     0.180 C 
ATOM    356  O4'   U A  20       8.669 -14.120  -7.310  1.00  0.00    -0.353 OA
ATOM    357  C1'   U A  20       8.981 -13.898  -5.952  1.00  0.00     0.264 C 
ATOM    358  C2'   U A  20       7.667 -14.007  -5.185  1.00  0.00     0.199 C 
ATOM    359  C3'   U A  20       6.953 -15.099  -5.975  1.00  0.00     0.198 C 
BRANCH 357 360
ATOM    360  N1    U A  20       9.638 -12.588  -5.832  1.00  0.00    -0.280 N 
ATOM    361  C6    U A  20       9.157 -11.485  -6.500  1.00  0.00     0.104 A 
ATOM    362  C5    U A  20       9.733 -10.283  -6.404  1.00  0.00     0.092 A 
ATOM    363  C4    U A  20      10.889 -10.108  -5.581  1.00  0.00     0.250 A 
ATOM    364  O4    U A  20      11.506  -9.056  -5.414  1.00  0.00    -0.268 OA
ATOM    365  N3    U A  20      11.315 -11.250  -4.942  1.00  0.00    -0.275 N 
ATOM    366  C2    U A  20      10.754 -12.499  -5.021  1.00  0.00     0.331 A 
ATOM    367  H3    U A  20      12.125 -11.159  -4.347  1.00  0.00     0.173 HD
ATOM    368  O2    U A  20      11.214 -13.452  -4.418  1.00  0.00    -0.246 OA
ENDBRANCH 357 360
BRANCH 358 369
ATOM    369  O2'   U A  20       7.946 -14.430  -3.864  1.00  0.00    -0.388 OA
ATOM    370 'HO2   U A  20       7.740 -15.365  -3.824  1.00  0.00     0.210 HD
ENDBRANCH 358 369
BRANCH 359 371
ATOM    371  O3'   U A  20       7.302 -16.405  -5.523  1.00  0.00    -0.279 OA
BRANCH 371 372
ATOM    372  P     U A  21       6.232 -17.602  -5.631  1.00  0.00     0.408 P 
ATOM    373  OP1   U A  21       5.315 -17.290  -6.757  1.00  0.00    -0.624 OA
ATOM    374  OP2   U A  21       5.674 -17.842  -4.276  1.00  0.00    -0.624 OA
BRANCH 372 375
ATOM    375  O5'   U A  21       7.110 -18.868  -6.039  1.00  0.00    -0.287 OA
ATOM    376  C5'   U A  21       7.622 -19.014  -7.363  1.00  0.00     0.216 C 
ATOM    377  C4'   U A  21       8.762 -20.005  -7.375  1.00  0.00     0.180 C 
ATOM    378  O4'   U A  21       9.926 -19.370  -6.775  1.00  0.00    -0.353 OA
ATOM    379  C3'   U A  21       8.523 -21.280  -6.569  1.00  0.00     0.198 C 
ATOM    380  C1'   U A  21      10.321 -20.087  -5.624  1.00  0.00     0.264 C 
ATOM    381  C2'   U A  21       9.130 -20.947  -5.210  1.00  0.00     0.199 C 
ATOM    382  N1    U A  21      10.747 -19.120  -4.601  1.00  0.00    -0.280 N 
ATOM    383  O2'   U A  21       9.611 -22.113  -4.569  1.00  0.00    -0.388 OA
ATOM    384 'HO2   U A  21       9.844 -22.724  -5.269  1.00  0.00     0.210 HD
ATOM    385  C6    U A  21      10.063 -17.942  -4.406  1.00  0.00     0.104 A 
ATOM    386  C2    U A  21      11.859 -19.433  -3.841  1.00  0.00     0.331 A 
ATOM    387  C5    U A  21      10.430 -17.047  -3.483  1.00  0.00     0.092 A 
ATOM    388  C4    U A  21      11.569 -17.298  -2.656  1.00  0.00     0.250 A 
ATOM    389  N3    U A  21      12.205 -18.492  -2.906  1.00  0.00    -0.275 N 
ATOM    390  O4    U A  21      11.998 -16.559  -1.772  1.00  0.00    -0.268 OA
ATOM    391  H3    U A  21      13.016 -18.697  -2.343  1.00  0.00     0.173 HD
ATOM    392  O2    U A  21      12.491 -20.465  -3.984  1.00  0.00    -0.246 OA
ATOM    393  O3'   U A  21       9.150 -22.411  -7.170  1.00  0.00    -0.279 OA
ATOM    394  P     C A  22       8.520 -23.063  -8.499  1.00  0.00     0.408 P 
ATOM    395  OP1   C A  22       7.047 -22.885  -8.433  1.00  0.00    -0.624 OA
ATOM    396  O5'   C A  22       9.080 -22.150  -9.678  1.00  0.00    -0.287 OA
ATOM    397  OP2   C A  22       9.085 -24.428  -8.654  1.00  0.00    -0.624 OA
ATOM    398  C5'   C A  22       8.446 -22.127 -10.955  1.00  0.00     0.216 C 
ATOM    399  C4'   C A  22       9.095 -21.088 -11.840  1.00  0.00     0.180 C 
ATOM    400  C3'   C A  22      10.613 -21.144 -11.915  1.00  0.00     0.198 C 
ATOM    401  O4'   C A  22       8.833 -19.773 -11.301  1.00  0.00    -0.353 OA
ATOM    402  C2'   C A  22      10.991 -19.720 -12.324  1.00  0.00     0.199 C 
ATOM    403  O3'   C A  22      11.051 -22.111 -12.866  1.00  0.00    -0.279 OA
ATOM    404  C1'   C A  22       9.861 -18.890 -11.703  1.00  0.00     0.264 C 
ATOM    405  P     A A  23      11.681 -23.505 -12.363  1.00  0.00     0.408 P 
ATOM    406  OP2   A A  23      11.270 -23.750 -10.957  1.00  0.00    -0.624 OA
ATOM    407  O5'   A A  23      13.254 -23.250 -12.390  1.00  0.00    -0.287 OA
ATOM    408  OP1   A A  23      11.369 -24.518 -13.403  1.00  0.00    -0.624 OA
ATOM    409  C5'   A A  23      13.839 -22.172 -11.658  1.00  0.00     0.216 C 
ATOM    410  C4'   A A  23      15.172 -22.593 -11.083  1.00  0.00     0.180 C 
ATOM    411  C3'   A A  23      15.344 -24.092 -10.860  1.00  0.00     0.198 C 
ATOM    412  O4'   A A  23      15.313 -21.986  -9.768  1.00  0.00    -0.353 OA
ATOM    413  O3'   A A  23      15.922 -24.720 -12.002  1.00  0.00    -0.279 OA
ATOM    414  C2'   A A  23      16.258 -24.157  -9.641  1.00  0.00     0.199 C 
ATOM    415  P     U A  24      15.823 -26.316 -12.174  1.00  0.00     0.408 P 
ATOM    416  OP1   U A  24      16.490 -26.663 -13.455  1.00  0.00    -0.624 OA
ATOM    417  OP2   U A  24      14.415 -26.729 -11.946  1.00  0.00    -0.624 OA
ATOM    418  O5'   U A  24      16.708 -26.889 -10.978  1.00  0.00    -0.287 OA
ATOM    419  C5'   U A  24      18.083 -27.220 -11.170  1.00  0.00     0.216 C 
ATOM    420  C4'   U A  24      18.718 -27.593  -9.851  1.00  0.00     0.180 C 
ATOM    421  O4'   U A  24      17.898 -28.615  -9.215  1.00  0.00    -0.353 OA
ATOM    422  C3'   U A  24      20.116 -28.196  -9.951  1.00  0.00     0.198 C 
ATOM    423  C1'   U A  24      18.650 -29.801  -9.055  1.00  0.00     0.264 C 
ATOM    424  C2'   U A  24      19.839 -29.693 -10.005  1.00  0.00     0.199 C 
ATOM    425  N1    U A  24      17.766 -30.946  -9.315  1.00  0.00    -0.280 N 
ATOM    426  O2'   U A  24      20.920 -30.433  -9.469  1.00  0.00    -0.388 OA
ATOM    427 'HO2   U A  24      21.355 -29.858  -8.839  1.00  0.00     0.210 HD
ATOM    428  C6    U A  24      17.138 -31.101 -10.530  1.00  0.00     0.104 A 
ATOM    429  C2    U A  24      17.584 -31.865  -8.297  1.00  0.00     0.331 A 
ATOM    430  C5    U A  24      16.328 -32.131 -10.790  1.00  0.00     0.092 A 
ATOM    431  C4    U A  24      16.086 -33.122  -9.789  1.00  0.00     0.250 A 
ATOM    432  O4    U A  24      15.361 -34.109  -9.908  1.00  0.00    -0.268 OA
ATOM    433  N3    U A  24      16.745 -32.907  -8.600  1.00  0.00    -0.275 N 
ATOM    434  H3    U A  24      16.589 -33.587  -7.871  1.00  0.00     0.173 HD
ATOM    435  O2    U A  24      18.124 -31.765  -7.210  1.00  0.00    -0.246 OA
ATOM    436  O3'   U A  24      20.919 -27.842  -8.827  1.00  0.00    -0.279 OA
ATOM    437  P     G A  25      21.977 -26.638  -8.946  1.00  0.00     0.408 P 
ATOM    438  O5'   G A  25      22.945 -27.092 -10.128  1.00  0.00    -0.287 OA
ATOM    439  OP2   G A  25      21.254 -25.414  -9.376  1.00  0.00    -0.624 OA
ATOM    440  OP1   G A  25      22.760 -26.624  -7.684  1.00  0.00    -0.624 OA
ATOM    441  C5'   G A  25      23.915 -28.120  -9.932  1.00  0.00     0.216 C 
ATOM    442  C4'   G A  25      24.847 -28.185 -11.119  1.00  0.00     0.180 C 
ATOM    443  C3'   G A  25      25.476 -29.546 -11.383  1.00  0.00     0.198 C 
ATOM    444  O4'   G A  25      25.978 -27.307 -10.877  1.00  0.00    -0.353 OA
ATOM    445  O3'   G A  25      24.617 -30.378 -12.158  1.00  0.00    -0.279 OA
ATOM    446  C2'   G A  25      26.755 -29.178 -12.124  1.00  0.00     0.199 C 
ATOM    447  P     G A  26      24.556 -31.958 -11.864  1.00  0.00     0.408 P 
ATOM    448  OP1   G A  26      23.645 -32.561 -12.871  1.00  0.00    -0.624 OA
ATOM    449  O5'   G A  26      26.037 -32.462 -12.166  1.00  0.00    -0.287 OA
ATOM    450  OP2   G A  26      24.282 -32.150 -10.417  1.00  0.00    -0.624 OA
ATOM    451  C5'   G A  26      26.606 -32.335 -13.468  1.00  0.00     0.216 C 
ATOM    452  C4'   G A  26      27.952 -33.019 -13.518  1.00  0.00     0.180 C 
ATOM    453  C3'   G A  26      28.026 -34.365 -12.810  1.00  0.00     0.198 C 
ATOM    454  O4'   G A  26      28.930 -32.190 -12.832  1.00  0.00    -0.353 OA
ATOM    455  C2'   G A  26      29.499 -34.458 -12.436  1.00  0.00     0.199 C 
ATOM    456  C1'   G A  26      29.794 -33.007 -12.061  1.00  0.00     0.262 C 
ATOM    457  N9    G A  26      29.568 -32.715 -10.649  1.00  0.00    -0.293 N 
ATOM    458  C8    G A  26      28.414 -32.238 -10.075  1.00  0.00     0.214 A 
ATOM    459  C4    G A  26      30.471 -32.873  -9.626  1.00  0.00     0.187 A 
ATOM    460  N7    G A  26      28.506 -32.087  -8.783  1.00  0.00    -0.234 NA
ATOM    461  C5    G A  26      29.803 -32.486  -8.484  1.00  0.00     0.173 A 
ATOM    462  C6    G A  26      30.485 -32.543  -7.242  1.00  0.00     0.292 A 
ATOM    463  O6    G A  26      30.067 -32.249  -6.116  1.00  0.00    -0.265 OA
ATOM    464  N1    G A  26      31.788 -33.005  -7.395  1.00  0.00    -0.153 N 
ATOM    465  C2    G A  26      32.360 -33.367  -8.587  1.00  0.00     0.703 A 
ATOM    466  H1    G A  26      32.347 -33.075  -6.558  1.00  0.00     0.187 HD
ATOM    467  N3    G A  26      31.740 -33.320  -9.750  1.00  0.00    -0.044 NA
ATOM    468  N2    G A  26      33.625 -33.788  -8.529  1.00  0.00    -0.233 N 
ATOM    469  H21   G A  26      34.092 -34.067  -9.381  1.00  0.00     0.174 HD
ATOM    470  H22   G A  26      34.113 -33.832  -7.645  1.00  0.00     0.174 HD
ATOM    471  C1'   G A  25      27.156 -27.889 -11.407  1.00  0.00     0.262 C 
ATOM    472  O2'   G A  25      26.491 -28.880 -13.482  1.00  0.00    -0.388 OA
ATOM    473  N9    G A  25      28.099 -28.100 -10.313  1.00  0.00    -0.293 N 
ATOM    474  C8    G A  25      27.862 -27.946  -8.969  1.00  0.00     0.214 A 
ATOM    475  C4    G A  25      29.409 -28.498 -10.431  1.00  0.00     0.187 A 
ATOM    476  N7    G A  25      28.901 -28.215  -8.228  1.00  0.00    -0.234 NA
ATOM    477  C5    G A  25      29.889 -28.564  -9.140  1.00  0.00     0.173 A 
ATOM    478  C6    G A  25      31.238 -28.955  -8.933  1.00  0.00     0.292 A 
ATOM    479  O6    G A  25      31.854 -29.074  -7.868  1.00  0.00    -0.265 OA
ATOM    480  N1    G A  25      31.882 -29.221 -10.136  1.00  0.00    -0.153 N 
ATOM    481  C2    G A  25      31.307 -29.123 -11.376  1.00  0.00     0.703 A 
ATOM    482  H1    G A  25      32.848 -29.507 -10.084  1.00  0.00     0.187 HD
ATOM    483  N3    G A  25      30.056 -28.761 -11.585  1.00  0.00    -0.044 NA
ATOM    484  N2    G A  25      32.092 -29.420 -12.414  1.00  0.00    -0.233 N 
ATOM    485  H22   G A  25      33.052 -29.699 -12.270  1.00  0.00     0.174 HD
ATOM    486  H21   G A  25      31.713 -29.363 -13.348  1.00  0.00     0.174 HD
ATOM    487 'HO2   G A  25      25.675 -29.328 -13.707  1.00  0.00     0.210 HD
ATOM    488  O2'   A A  23      17.610 -23.950 -10.003  1.00  0.00    -0.388 OA
ATOM    489  C1'   A A  23      15.775 -22.949  -8.841  1.00  0.00     0.262 C 
ATOM    490 'HO2   A A  23      17.646 -23.968 -10.960  1.00  0.00     0.210 HD
ATOM    491  N9    A A  23      14.688 -23.247  -7.909  1.00  0.00    -0.294 N 
ATOM    492  C8    A A  23      13.349 -23.370  -8.185  1.00  0.00     0.214 A 
ATOM    493  C4    A A  23      14.813 -23.462  -6.557  1.00  0.00     0.167 A 
ATOM    494  N7    A A  23      12.615 -23.644  -7.134  1.00  0.00    -0.236 NA
ATOM    495  C5    A A  23      13.533 -23.704  -6.094  1.00  0.00     0.149 A 
ATOM    496  C6    A A  23      13.389 -23.956  -4.719  1.00  0.00     0.155 A 
ATOM    497  N6    A A  23      12.220 -24.204  -4.129  1.00  0.00    -0.382 N 
ATOM    498  N1    A A  23      14.504 -23.945  -3.958  1.00  0.00    -0.222 NA
ATOM    499  H61   A A  23      11.373 -24.216  -4.679  1.00  0.00     0.157 HD
ATOM    500  H62   A A  23      12.185 -24.373  -3.134  1.00  0.00     0.157 HD
ATOM    501  C2    A A  23      15.680 -23.695  -4.549  1.00  0.00     0.237 A 
ATOM    502  N3    A A  23      15.942 -23.442  -5.830  1.00  0.00    -0.222 NA
BRANCH 402 503
ATOM    503  O2'   C A  22      10.936 -19.568 -13.731  1.00  0.00    -0.388 OA
ATOM    504 'HO2   C A  22      10.997 -20.449 -14.100  1.00  0.00     0.210 HD
ENDBRANCH 402 503
BRANCH 404 505
ATOM    505  N1    C A  22      10.260 -18.083 -10.532  1.00  0.00    -0.278 N 
ATOM    506  C6    C A  22       9.746 -16.829 -10.354  1.00  0.00     0.102 A 
ATOM    507  C5    C A  22      10.096 -16.080  -9.301  1.00  0.00     0.067 A 
ATOM    508  C4    C A  22      11.022 -16.642  -8.376  1.00  0.00     0.128 A 
ATOM    509  N3    C A  22      11.530 -17.864  -8.536  1.00  0.00    -0.177 NA
ATOM    510  C2    C A  22      11.169 -18.612  -9.602  1.00  0.00     0.352 A 
ATOM    511  O2    C A  22      11.620 -19.752  -9.779  1.00  0.00    -0.244 OA
BRANCH 508 512
ATOM    512  N4    C A  22      11.409 -15.946  -7.310  1.00  0.00    -0.384 N 
ATOM    513  H41   C A  22      11.048 -15.014  -7.152  1.00  0.00     0.157 HD
ATOM    514  H42   C A  22      12.066 -16.355  -6.657  1.00  0.00     0.157 HD
ENDBRANCH 508 512
ENDBRANCH 404 505
BRANCH 453 515
ATOM    515  O3'   G A  26      27.609 -35.430 -13.660  1.00  0.00    -0.279 OA
BRANCH 515 516
ATOM    516  P     A A  27      26.624 -36.567 -13.090  1.00  0.00     0.408 P 
ATOM    517  OP1   A A  27      26.444 -37.575 -14.166  1.00  0.00    -0.624 OA
ATOM    518  OP2   A A  27      25.433 -35.905 -12.500  1.00  0.00    -0.624 OA
BRANCH 516 519
ATOM    519  O5'   A A  27      27.456 -37.243 -11.911  1.00  0.00    -0.287 OA
BRANCH 519 520
ATOM    520  C5'   A A  27      28.731 -37.834 -12.158  1.00  0.00     0.216 C 
BRANCH 520 521
ATOM    521  C4'   A A  27      29.509 -37.956 -10.868  1.00  0.00     0.180 C 
ATOM    522  C3'   A A  27      28.873 -38.834  -9.799  1.00  0.00     0.198 C 
ATOM    523  C2'   A A  27      29.478 -38.271  -8.520  1.00  0.00     0.199 C 
ATOM    524  C1'   A A  27      29.491 -36.776  -8.838  1.00  0.00     0.262 C 
ATOM    525  O4'   A A  27      29.607 -36.645 -10.245  1.00  0.00    -0.353 OA
BRANCH 522 526
ATOM    526  O3'   A A  27      29.185 -40.211  -9.994  1.00  0.00    -0.279 OA
BRANCH 526 527
ATOM    527  P     A A  28      28.227 -41.344  -9.370  1.00  0.00     0.408 P 
ATOM    528  OP1   A A  28      28.593 -42.632 -10.013  1.00  0.00    -0.624 OA
ATOM    529  OP2   A A  28      26.822 -40.867  -9.430  1.00  0.00    -0.624 OA
BRANCH 527 530
ATOM    530  O5'   A A  28      28.664 -41.415  -7.839  1.00  0.00    -0.287 OA
BRANCH 530 531
ATOM    531  C5'   A A  28      30.011 -41.708  -7.474  1.00  0.00     0.216 C 
BRANCH 531 532
ATOM    532  C4'   A A  28      30.185 -41.587  -5.978  1.00  0.00     0.180 C 
ATOM    533  C3'   A A  28      29.170 -42.346  -5.136  1.00  0.00     0.198 C 
ATOM    534  C2'   A A  28      29.196 -41.566  -3.829  1.00  0.00     0.199 C 
ATOM    535  C1'   A A  28      29.308 -40.135  -4.354  1.00  0.00     0.262 C 
ATOM    536  O4'   A A  28      30.005 -40.197  -5.587  1.00  0.00    -0.353 OA
BRANCH 533 537
ATOM    537  O3'   A A  28      29.539 -43.713  -4.971  1.00  0.00    -0.279 OA
BRANCH 537 538
ATOM    538  P     G A  29      28.398 -44.842  -4.859  1.00  0.00     0.408 P 
ATOM    539  OP1   G A  29      29.064 -46.158  -5.031  1.00  0.00    -0.624 OA
ATOM    540  OP2   G A  29      27.268 -44.471  -5.748  1.00  0.00    -0.624 OA
BRANCH 538 541
ATOM    541  O5'   G A  29      27.901 -44.736  -3.349  1.00  0.00    -0.287 OA
BRANCH 541 542
ATOM    542  C5'   G A  29      28.833 -44.719  -2.270  1.00  0.00     0.216 C 
BRANCH 542 543
ATOM    543  C4'   G A  29      28.174 -44.188  -1.019  1.00  0.00     0.180 C 
ATOM    544  C3'   G A  29      26.818 -44.790  -0.685  1.00  0.00     0.198 C 
ATOM    545  C2'   G A  29      26.194 -43.717   0.202  1.00  0.00     0.199 C 
ATOM    546  C1'   G A  29      26.732 -42.437  -0.444  1.00  0.00     0.262 C 
ATOM    547  O4'   G A  29      27.889 -42.776  -1.188  1.00  0.00    -0.353 OA
BRANCH 544 548
ATOM    548  O3'   G A  29      26.956 -46.043  -0.018  1.00  0.00    -0.279 OA
BRANCH 548 549
ATOM    549  P     A A  30      26.058 -47.298  -0.474  1.00  0.00     0.408 P 
ATOM    550  OP1   A A  30      26.843 -48.525  -0.182  1.00  0.00    -0.624 OA
ATOM    551  OP2   A A  30      25.548 -47.065  -1.849  1.00  0.00    -0.624 OA
BRANCH 549 552
ATOM    552  O5'   A A  30      24.817 -47.262   0.525  1.00  0.00    -0.287 OA
BRANCH 552 553
ATOM    553  C5'   A A  30      25.013 -47.187   1.936  1.00  0.00     0.216 C 
BRANCH 553 554
ATOM    554  C4'   A A  30      23.781 -46.625   2.605  1.00  0.00     0.180 C 
ATOM    555  C3'   A A  30      22.452 -47.141   2.074  1.00  0.00     0.198 C 
ATOM    556  C2'   A A  30      21.501 -46.010   2.442  1.00  0.00     0.199 C 
ATOM    557  C1'   A A  30      22.381 -44.792   2.167  1.00  0.00     0.262 C 
ATOM    558  O4'   A A  30      23.726 -45.191   2.370  1.00  0.00    -0.353 OA
BRANCH 555 559
ATOM    559  O3'   A A  30      22.085 -48.381   2.671  1.00  0.00    -0.279 OA
BRANCH 559 560
ATOM    560  P     C A  31      21.065 -49.363   1.908  1.00  0.00     0.408 P 
ATOM    561  OP1   C A  31      20.837 -50.537   2.788  1.00  0.00    -0.624 OA
ATOM    562  OP2   C A  31      21.559 -49.569   0.522  1.00  0.00    -0.624 OA
BRANCH 560 563
ATOM    563  O5'   C A  31      19.710 -48.527   1.832  1.00  0.00    -0.287 OA
BRANCH 563 564
ATOM    564  C5'   C A  31      19.056 -48.082   3.020  1.00  0.00     0.216 C 
BRANCH 564 565
ATOM    565  C4'   C A  31      17.880 -47.198   2.672  1.00  0.00     0.180 C 
ATOM    566  C3'   C A  31      16.862 -47.798   1.717  1.00  0.00     0.198 C 
ATOM    567  C2'   C A  31      16.158 -46.561   1.165  1.00  0.00     0.199 C 
ATOM    568  C1'   C A  31      17.295 -45.534   1.143  1.00  0.00     0.264 C 
ATOM    569  O4'   C A  31      18.343 -46.024   1.962  1.00  0.00    -0.353 OA
BRANCH 566 570
ATOM    570  O3'   C A  31      15.971 -48.682   2.392  1.00  0.00    -0.279 OA
BRANCH 570 571
ATOM    571  P     A A  32      15.077 -49.717   1.546  1.00  0.00     0.408 P 
ATOM    572  OP1   A A  32      14.589 -50.752   2.491  1.00  0.00    -0.624 OA
ATOM    573  O5'   A A  32      13.825 -48.849   1.078  1.00  0.00    -0.287 OA
ATOM    574  C5'   A A  32      13.249 -49.024  -0.216  1.00  0.00     0.216 C 
ATOM    575  C4'   A A  32      12.234 -47.938  -0.484  1.00  0.00     0.180 C 
ATOM    576  C3'   A A  32      11.526 -48.031  -1.831  1.00  0.00     0.198 C 
ATOM    577  O4'   A A  32      12.922 -46.655  -0.501  1.00  0.00    -0.353 OA
ATOM    578  C2'   A A  32      11.241 -46.571  -2.163  1.00  0.00     0.199 C 
ATOM    579  O3'   A A  32      10.333 -48.806  -1.745  1.00  0.00    -0.279 OA
ATOM    580  C1'   A A  32      12.501 -45.900  -1.622  1.00  0.00     0.262 C 
ATOM    581  P     G A  33      10.237 -50.214  -2.517  1.00  0.00     0.408 P 
ATOM    582  OP1   G A  33       8.809 -50.425  -2.872  1.00  0.00    -0.624 OA
ATOM    583  OP2   G A  33      10.948 -51.235  -1.706  1.00  0.00    -0.624 OA
ATOM    584  O5'   G A  33      11.064 -49.981  -3.860  1.00  0.00    -0.287 OA
ATOM    585  C5'   G A  33      10.420 -49.962  -5.135  1.00  0.00     0.216 C 
ATOM    586  C4'   G A  33       9.689 -48.653  -5.332  1.00  0.00     0.180 C 
ATOM    587  C3'   G A  33       9.304 -48.335  -6.775  1.00  0.00     0.198 C 
ATOM    588  O4'   G A  33      10.566 -47.569  -4.910  1.00  0.00    -0.353 OA
ATOM    589  O3'   G A  33       7.974 -48.765  -7.062  1.00  0.00    -0.279 OA
ATOM    590  C2'   G A  33       9.462 -46.820  -6.843  1.00  0.00     0.199 C 
ATOM    591  P     A A  34       7.302 -48.409  -8.482  1.00  0.00     0.408 P 
ATOM    592  O5'   A A  34       6.943 -49.831  -9.113  1.00  0.00    -0.287 OA
ATOM    593  OP2   A A  34       8.316 -47.745  -9.339  1.00  0.00    -0.624 OA
ATOM    594  OP1   A A  34       6.023 -47.712  -8.190  1.00  0.00    -0.624 OA
ATOM    595  C5'   A A  34       7.914 -50.592  -9.836  1.00  0.00     0.216 C 
ATOM    596  C4'   A A  34       8.060 -50.051 -11.240  1.00  0.00     0.180 C 
ATOM    597  O4'   A A  34       9.212 -49.162 -11.267  1.00  0.00    -0.353 OA
ATOM    598  C3'   A A  34       8.339 -51.088 -12.325  1.00  0.00     0.198 C 
ATOM    599  C1'   A A  34       9.977 -49.405 -12.431  1.00  0.00     0.262 C 
ATOM    600  C2'   A A  34       9.133 -50.285 -13.348  1.00  0.00     0.199 C 
ATOM    601  N9    A A  34      11.242 -50.023 -12.034  1.00  0.00    -0.294 N 
ATOM    602  O2'   A A  34       8.286 -49.457 -14.123  1.00  0.00    -0.388 OA
ATOM    603 'HO2   A A  34       7.401 -49.814 -14.041  1.00  0.00     0.210 HD
ATOM    604  C4    A A  34      12.247 -50.398 -12.889  1.00  0.00     0.167 A 
ATOM    605  C8    A A  34      11.679 -50.349 -10.774  1.00  0.00     0.214 A 
ATOM    606  N3    A A  34      12.263 -50.273 -14.225  1.00  0.00    -0.222 NA
ATOM    607  C5    A A  34      13.243 -50.931 -12.092  1.00  0.00     0.149 A 
ATOM    608  C2    A A  34      13.400 -50.739 -14.724  1.00  0.00     0.237 A 
ATOM    609  N1    A A  34      14.449 -51.273 -14.085  1.00  0.00    -0.222 NA
ATOM    610  C6    A A  34      14.401 -51.388 -12.742  1.00  0.00     0.155 A 
ATOM    611  N6    A A  34      15.448 -51.925 -12.115  1.00  0.00    -0.382 N 
ATOM    612  H61   A A  34      15.440 -52.023 -11.110  1.00  0.00     0.157 HD
ATOM    613  H62   A A  34      16.250 -52.238 -12.646  1.00  0.00     0.157 HD
ATOM    614  N7    A A  34      12.872 -50.895 -10.754  1.00  0.00    -0.236 NA
ATOM    615  O3'   A A  34       7.137 -51.622 -12.878  1.00  0.00    -0.279 OA
ATOM    616  P     U A  35       7.136 -53.099 -13.523  1.00  0.00     0.408 P 
ATOM    617  OP1   U A  35       5.748 -53.617 -13.426  1.00  0.00    -0.624 OA
ATOM    618  OP2   U A  35       8.253 -53.882 -12.933  1.00  0.00    -0.624 OA
ATOM    619  O5'   U A  35       7.458 -52.854 -15.066  1.00  0.00    -0.287 OA
ATOM    620  C5'   U A  35       8.792 -52.609 -15.512  1.00  0.00     0.216 C 
ATOM    621  C4'   U A  35       9.180 -53.607 -16.580  1.00  0.00     0.180 C 
ATOM    622  C3'   U A  35       8.983 -55.072 -16.210  1.00  0.00     0.198 C 
ATOM    623  O4'   U A  35      10.604 -53.471 -16.839  1.00  0.00    -0.353 OA
ATOM    624  O3'   U A  35       7.672 -55.519 -16.543  1.00  0.00    -0.279 OA
ATOM    625  C2'   U A  35      10.059 -55.775 -17.030  1.00  0.00     0.199 C 
ATOM    626  P     U A  36       7.091 -56.862 -15.876  1.00  0.00     0.408 P 
ATOM    627  OP1   U A  36       5.700 -57.035 -16.367  1.00  0.00    -0.624 OA
ATOM    628  O5'   U A  36       7.986 -58.022 -16.503  1.00  0.00    -0.287 OA
ATOM    629  OP2   U A  36       7.352 -56.804 -14.414  1.00  0.00    -0.624 OA
ATOM    630  C5'   U A  36       8.161 -59.267 -15.827  1.00  0.00     0.216 C 
ATOM    631  C4'   U A  36       9.490 -59.883 -16.202  1.00  0.00     0.180 C 
ATOM    632  C3'   U A  36       9.997 -60.957 -15.245  1.00  0.00     0.198 C 
ATOM    633  O4'   U A  36      10.508 -58.843 -16.187  1.00  0.00    -0.353 OA
ATOM    634  O3'   U A  36       9.552 -62.253 -15.634  1.00  0.00    -0.279 OA
ATOM    635  C2'   U A  36      11.510 -60.812 -15.343  1.00  0.00     0.199 C 
ATOM    636  P     C A  37       9.042 -63.291 -14.516  1.00  0.00     0.408 P 
ATOM    637  OP1   C A  37       9.088 -64.647 -15.121  1.00  0.00    -0.624 OA
ATOM    638  OP2   C A  37       7.765 -62.780 -13.957  1.00  0.00    -0.624 OA
ATOM    639  O5'   C A  37      10.157 -63.215 -13.380  1.00  0.00    -0.287 OA
ATOM    640  C5'   C A  37       9.856 -63.559 -12.028  1.00  0.00     0.216 C 
ATOM    641  C4'   C A  37      10.988 -64.362 -11.429  1.00  0.00     0.180 C 
ATOM    642  O4'   C A  37      11.141 -65.593 -12.188  1.00  0.00    -0.353 OA
ATOM    643  C3'   C A  37      12.359 -63.700 -11.480  1.00  0.00     0.198 C 
ATOM    644  C1'   C A  37      12.518 -65.875 -12.373  1.00  0.00     0.264 C 
ATOM    645  N1    C A  37      12.826 -65.765 -13.808  1.00  0.00    -0.278 N 
ATOM    646  C2'   C A  37      13.302 -64.897 -11.498  1.00  0.00     0.199 C 
ATOM    647  C2    C A  37      13.660 -66.720 -14.396  1.00  0.00     0.352 A 
ATOM    648  C6    C A  37      12.308 -64.746 -14.559  1.00  0.00     0.102 A 
ATOM    649  N3    C A  37      13.950 -66.623 -15.713  1.00  0.00    -0.177 NA
ATOM    650  O2    C A  37      14.114 -67.635 -13.694  1.00  0.00    -0.244 OA
ATOM    651  C4    C A  37      13.441 -65.623 -16.435  1.00  0.00     0.128 A 
ATOM    652  C5    C A  37      12.586 -64.638 -15.864  1.00  0.00     0.067 A 
ATOM    653  N4    C A  37      13.758 -65.566 -17.728  1.00  0.00    -0.384 N 
ATOM    654  H41   C A  37      13.392 -64.823 -18.305  1.00  0.00     0.157 HD
ATOM    655  H42   C A  37      14.365 -66.270 -18.123  1.00  0.00     0.157 HD
ATOM    656  O2'   C A  37      13.445 -65.454 -10.205  1.00  0.00    -0.388 OA
ATOM    657 'HO2   C A  37      13.194 -64.770  -9.583  1.00  0.00     0.210 HD
ATOM    658  O3'   C A  37      12.577 -62.855 -10.354  1.00  0.00    -0.279 OA
ATOM    659  P     G A  38      12.804 -61.276 -10.569  1.00  0.00     0.408 P 
ATOM    660  OP2   G A  38      11.960 -60.831 -11.707  1.00  0.00    -0.624 OA
ATOM    661  O5'   G A  38      14.333 -61.159 -11.001  1.00  0.00    -0.287 OA
ATOM    662  OP1   G A  38      12.647 -60.626  -9.243  1.00  0.00    -0.624 OA
ATOM    663  C5'   G A  38      15.383 -61.403 -10.065  1.00  0.00     0.216 C 
ATOM    664  C4'   G A  38      16.720 -61.417 -10.769  1.00  0.00     0.180 C 
ATOM    665  C3'   G A  38      17.017 -60.201 -11.636  1.00  0.00     0.198 C 
ATOM    666  O4'   G A  38      16.753 -62.545 -11.685  1.00  0.00    -0.353 OA
ATOM    667  O3'   G A  38      17.620 -59.152 -10.882  1.00  0.00    -0.279 OA
ATOM    668  C2'   G A  38      17.963 -60.761 -12.692  1.00  0.00     0.199 C 
ATOM    669  P     A A  39      16.743 -57.878 -10.438  1.00  0.00     0.408 P 
ATOM    670  OP2   A A  39      15.774 -57.575 -11.519  1.00  0.00    -0.624 OA
ATOM    671  OP1   A A  39      16.251 -58.138  -9.062  1.00  0.00    -0.624 OA
ATOM    672  O5'   A A  39      17.798 -56.685 -10.370  1.00  0.00    -0.287 OA
ATOM    673  C5'   A A  39      19.051 -56.846  -9.707  1.00  0.00     0.216 C 
ATOM    674  C4'   A A  39      20.158 -56.216 -10.520  1.00  0.00     0.180 C 
ATOM    675  O4'   A A  39      19.944 -56.507 -11.931  1.00  0.00    -0.353 OA
ATOM    676  C3'   A A  39      20.225 -54.696 -10.475  1.00  0.00     0.198 C 
ATOM    677  C1'   A A  39      20.344 -55.393 -12.714  1.00  0.00     0.262 C 
ATOM    678  N9    A A  39      19.173 -54.878 -13.425  1.00  0.00    -0.294 N 
ATOM    679  C2'   A A  39      20.983 -54.383 -11.762  1.00  0.00     0.199 C 
ATOM    680  C8    A A  39      17.867 -54.852 -13.000  1.00  0.00     0.214 A 
ATOM    681  C4    A A  39      19.172 -54.310 -14.676  1.00  0.00     0.167 A 
ATOM    682  N7    A A  39      17.041 -54.319 -13.867  1.00  0.00    -0.236 NA
ATOM    683  C5    A A  39      17.857 -53.972 -14.935  1.00  0.00     0.149 A 
ATOM    684  C6    A A  39      17.587 -53.364 -16.174  1.00  0.00     0.155 A 
ATOM    685  N6    A A  39      16.371 -52.980 -16.563  1.00  0.00    -0.382 N 
ATOM    686  N1    A A  39      18.625 -53.159 -17.012  1.00  0.00    -0.222 NA
ATOM    687  H61   A A  39      15.580 -53.122 -15.951  1.00  0.00     0.157 HD
ATOM    688  H62   A A  39      16.246 -52.550 -17.468  1.00  0.00     0.157 HD
ATOM    689  C2    A A  39      19.848 -53.541 -16.623  1.00  0.00     0.237 A 
ATOM    690  N3    A A  39      20.227 -54.120 -15.486  1.00  0.00    -0.222 NA
ATOM    691  O2'   A A  39      22.357 -54.706 -11.709  1.00  0.00    -0.388 OA
ATOM    692 'HO2   A A  39      22.420 -55.573 -11.305  1.00  0.00     0.210 HD
ATOM    693  O3'   A A  39      20.814 -54.208  -9.257  1.00  0.00    -0.279 OA
ATOM    694  P     G A  40      22.404 -54.310  -9.001  1.00  0.00     0.408 P 
ATOM    695  OP1   G A  40      22.898 -55.610  -9.524  1.00  0.00    -0.624 OA
ATOM    696  O5'   G A  40      23.017 -53.130  -9.881  1.00  0.00    -0.287 OA
ATOM    697  OP2   G A  40      22.635 -53.966  -7.575  1.00  0.00    -0.624 OA
ATOM    698  C5'   G A  40      24.365 -53.181 -10.344  1.00  0.00     0.216 C 
ATOM    699  C4'   G A  40      24.787 -51.830 -10.871  1.00  0.00     0.180 C 
ATOM    700  C3'   G A  40      24.140 -51.406 -12.184  1.00  0.00     0.198 C 
ATOM    701  O4'   G A  40      26.213 -51.872 -11.150  1.00  0.00    -0.353 OA
ATOM    702  C2'   G A  40      25.197 -50.498 -12.805  1.00  0.00     0.199 C 
ATOM    703  O3'   G A  40      22.907 -50.724 -11.960  1.00  0.00    -0.279 OA
ATOM    704  O2'   G A  40      25.145 -49.198 -12.247  1.00  0.00    -0.388 OA
ATOM    705  C1'   G A  40      26.489 -51.175 -12.350  1.00  0.00     0.262 C 
ATOM    706 'HO2   G A  40      24.411 -49.196 -11.630  1.00  0.00     0.210 HD
ATOM    707  N9    G A  40      27.026 -52.124 -13.321  1.00  0.00    -0.293 N 
ATOM    708  C8    G A  40      28.113 -51.940 -14.140  1.00  0.00     0.214 A 
ATOM    709  C4    G A  40      26.541 -53.380 -13.599  1.00  0.00     0.187 A 
ATOM    710  N7    G A  40      28.359 -52.965 -14.908  1.00  0.00    -0.234 NA
ATOM    711  C5    G A  40      27.372 -53.885 -14.577  1.00  0.00     0.173 A 
ATOM    712  C6    G A  40      27.122 -55.189 -15.080  1.00  0.00     0.292 A 
ATOM    713  O6    G A  40      27.742 -55.814 -15.947  1.00  0.00    -0.265 OA
ATOM    714  N1    G A  40      26.020 -55.770 -14.465  1.00  0.00    -0.153 N 
ATOM    715  C2    G A  40      25.255 -55.177 -13.495  1.00  0.00     0.703 A 
ATOM    716  H1    G A  40      25.765 -56.701 -14.756  1.00  0.00     0.187 HD
ATOM    717  N2    G A  40      24.233 -55.896 -13.029  1.00  0.00    -0.233 N 
ATOM    718  N3    G A  40      25.474 -53.966 -13.018  1.00  0.00    -0.044 NA
ATOM    719  H22   G A  40      24.047 -56.821 -13.385  1.00  0.00     0.174 HD
ATOM    720  H21   G A  40      23.642 -55.494 -12.314  1.00  0.00     0.174 HD
ATOM    721  P     U A  41      21.946 -50.370 -13.202  1.00  0.00     0.408 P 
ATOM    722  OP1   U A  41      21.429 -48.995 -12.978  1.00  0.00    -0.624 OA
ATOM    723  OP2   U A  41      20.989 -51.488 -13.394  1.00  0.00    -0.624 OA
ATOM    724  O5'   U A  41      22.921 -50.342 -14.463  1.00  0.00    -0.287 OA
ATOM    725  C5'   U A  41      23.401 -49.109 -15.002  1.00  0.00     0.216 C 
ATOM    726  C4'   U A  41      24.053 -49.349 -16.344  1.00  0.00     0.180 C 
ATOM    727  C3'   U A  41      23.100 -49.746 -17.465  1.00  0.00     0.198 C 
ATOM    728  O4'   U A  41      24.978 -50.462 -16.217  1.00  0.00    -0.353 OA
ATOM    729  O3'   U A  41      22.600 -48.598 -18.147  1.00  0.00    -0.279 OA
ATOM    730  C2'   U A  41      23.971 -50.610 -18.372  1.00  0.00     0.199 C 
ATOM    731  P     U A  42      21.105 -48.080 -17.857  1.00  0.00     0.408 P 
ATOM    732  O5'   U A  42      20.204 -48.933 -18.857  1.00  0.00    -0.287 OA
ATOM    733  OP1   U A  42      21.050 -46.656 -18.272  1.00  0.00    -0.624 OA
ATOM    734  OP2   U A  42      20.726 -48.454 -16.471  1.00  0.00    -0.624 OA
ATOM    735  C5'   U A  42      19.823 -48.420 -20.134  1.00  0.00     0.216 C 
ATOM    736  C4'   U A  42      18.339 -48.133 -20.159  1.00  0.00     0.180 C 
ATOM    737  O4'   U A  42      17.625 -49.334 -19.752  1.00  0.00    -0.353 OA
ATOM    738  C3'   U A  42      17.866 -47.050 -19.197  1.00  0.00     0.198 C 
ATOM    739  C1'   U A  42      16.587 -48.992 -18.851  1.00  0.00     0.264 C 
ATOM    740  C2'   U A  42      16.433 -47.473 -18.904  1.00  0.00     0.199 C 
ATOM    741  N1    U A  42      16.939 -49.502 -17.518  1.00  0.00    -0.280 N 
ATOM    742  O2'   U A  42      15.569 -47.139 -19.974  1.00  0.00    -0.388 OA
ATOM    743 'HO2   U A  42      15.956 -46.384 -20.417  1.00  0.00     0.210 HD
ATOM    744  C6    U A  42      18.211 -49.943 -17.229  1.00  0.00     0.104 A 
ATOM    745  C2    U A  42      15.947 -49.521 -16.558  1.00  0.00     0.331 A 
ATOM    746  C5    U A  42      18.552 -50.401 -16.020  1.00  0.00     0.092 A 
ATOM    747  C4    U A  42      17.580 -50.451 -14.976  1.00  0.00     0.250 A 
ATOM    748  O4    U A  42      17.763 -50.863 -13.831  1.00  0.00    -0.268 OA
ATOM    749  N3    U A  42      16.335 -50.000 -15.335  1.00  0.00    -0.275 N 
ATOM    750  H3    U A  42      15.634 -50.019 -14.612  1.00  0.00     0.173 HD
ATOM    751  O2    U A  42      14.810 -49.143 -16.772  1.00  0.00    -0.246 OA
ATOM    752  O3'   U A  42      17.941 -45.754 -19.784  1.00  0.00    -0.279 OA
ATOM    753  P     C A  43      18.045 -44.454 -18.843  1.00  0.00     0.408 P 
ATOM    754  O5'   C A  43      16.661 -44.436 -18.053  1.00  0.00    -0.287 OA
ATOM    755  OP2   C A  43      19.132 -44.671 -17.855  1.00  0.00    -0.624 OA
ATOM    756  OP1   C A  43      18.089 -43.266 -19.733  1.00  0.00    -0.624 OA
ATOM    757  C5'   C A  43      15.436 -44.129 -18.719  1.00  0.00     0.216 C 
ATOM    758  C4'   C A  43      14.366 -43.780 -17.710  1.00  0.00     0.180 C 
ATOM    759  O4'   C A  43      13.963 -44.987 -17.011  1.00  0.00    -0.353 OA
ATOM    760  C3'   C A  43      14.795 -42.833 -16.598  1.00  0.00     0.198 C 
ATOM    761  C1'   C A  43      13.649 -44.676 -15.665  1.00  0.00     0.264 C 
ATOM    762  N1    C A  43      14.526 -45.466 -14.785  1.00  0.00    -0.278 N 
ATOM    763  C2'   C A  43      13.808 -43.166 -15.484  1.00  0.00     0.199 C 
ATOM    764  C2    C A  43      14.144 -45.664 -13.457  1.00  0.00     0.352 A 
ATOM    765  C6    C A  43      15.696 -45.997 -15.252  1.00  0.00     0.102 A 
ATOM    766  O2    C A  43      13.080 -45.170 -13.057  1.00  0.00    -0.244 OA
ATOM    767  N3    C A  43      14.941 -46.386 -12.640  1.00  0.00    -0.177 NA
ATOM    768  C4    C A  43      16.080 -46.901 -13.104  1.00  0.00     0.128 A 
ATOM    769  C5    C A  43      16.497 -46.714 -14.454  1.00  0.00     0.067 A 
ATOM    770  N4    C A  43      16.831 -47.607 -12.259  1.00  0.00    -0.384 N 
ATOM    771  H41   C A  43      17.701 -48.015 -12.568  1.00  0.00     0.157 HD
ATOM    772  H42   C A  43      16.524 -47.729 -11.304  1.00  0.00     0.157 HD
ATOM    773  O2'   U A  41      24.755 -49.809 -19.235  1.00  0.00    -0.388 OA
ATOM    774  C1'   U A  41      24.895 -51.290 -17.361  1.00  0.00     0.264 C 
ATOM    775 'HO2   U A  41      24.364 -48.934 -19.228  1.00  0.00     0.210 HD
ATOM    776  N1    U A  41      24.434 -52.621 -16.937  1.00  0.00    -0.280 N 
ATOM    777  C2    U A  41      24.847 -53.711 -17.680  1.00  0.00     0.331 A 
ATOM    778  C6    U A  41      23.621 -52.779 -15.838  1.00  0.00     0.104 A 
ATOM    779  N3    U A  41      24.389 -54.924 -17.234  1.00  0.00    -0.275 N 
ATOM    780  O2    U A  41      25.564 -53.613 -18.659  1.00  0.00    -0.246 OA
ATOM    781  C4    U A  41      23.578 -55.154 -16.147  1.00  0.00     0.250 A 
ATOM    782  H3    U A  41      24.682 -55.731 -17.762  1.00  0.00     0.173 HD
ATOM    783  O4    U A  41      23.265 -56.310 -15.862  1.00  0.00    -0.268 OA
ATOM    784  C5    U A  41      23.192 -53.978 -15.433  1.00  0.00     0.092 A 
ATOM    785  C1'   G A  38      17.397 -62.167 -12.889  1.00  0.00     0.262 C 
ATOM    786  O2'   G A  38      19.282 -60.867 -12.190  1.00  0.00    -0.388 OA
ATOM    787  N9    G A  38      16.430 -62.263 -13.978  1.00  0.00    -0.293 N 
ATOM    788  C8    G A  38      15.111 -62.634 -13.885  1.00  0.00     0.214 A 
ATOM    789  C4    G A  38      16.665 -62.001 -15.306  1.00  0.00     0.187 A 
ATOM    790  N7    G A  38      14.494 -62.634 -15.034  1.00  0.00    -0.234 NA
ATOM    791  C5    G A  38      15.465 -62.236 -15.943  1.00  0.00     0.173 A 
ATOM    792  C6    G A  38      15.391 -62.050 -17.349  1.00  0.00     0.292 A 
ATOM    793  O6    G A  38      14.422 -62.212 -18.100  1.00  0.00    -0.265 OA
ATOM    794  N1    G A  38      16.609 -61.636 -17.874  1.00  0.00    -0.153 N 
ATOM    795  H1    G A  38      16.649 -61.477 -18.869  1.00  0.00     0.187 HD
ATOM    796  C2    G A  38      17.752 -61.429 -17.145  1.00  0.00     0.703 A 
ATOM    797  N3    G A  38      17.838 -61.601 -15.839  1.00  0.00    -0.044 NA
ATOM    798  N2    G A  38      18.826 -61.030 -17.832  1.00  0.00    -0.233 N 
ATOM    799  H21   G A  38      19.691 -60.864 -17.339  1.00  0.00     0.174 HD
ATOM    800  H22   G A  38      18.775 -60.894 -18.830  1.00  0.00     0.174 HD
ATOM    801 'HO2   G A  38      19.371 -60.192 -11.516  1.00  0.00     0.210 HD
ATOM    802  O2'   U A  36      12.011 -61.428 -16.515  1.00  0.00    -0.388 OA
ATOM    803  C1'   U A  36      11.650 -59.298 -15.486  1.00  0.00     0.264 C 
ATOM    804 'HO2   U A  36      11.292 -61.448 -17.147  1.00  0.00     0.210 HD
ATOM    805  N1    U A  36      11.722 -58.584 -14.203  1.00  0.00    -0.280 N 
ATOM    806  C6    U A  36      10.682 -57.795 -13.765  1.00  0.00     0.104 A 
ATOM    807  C2    U A  36      12.869 -58.733 -13.446  1.00  0.00     0.331 A 
ATOM    808  C5    U A  36      10.720 -57.143 -12.601  1.00  0.00     0.092 A 
ATOM    809  C4    U A  36      11.870 -57.250 -11.760  1.00  0.00     0.250 A 
ATOM    810  O4    U A  36      12.025 -56.692 -10.674  1.00  0.00    -0.268 OA
ATOM    811  N3    U A  36      12.871 -58.051 -12.257  1.00  0.00    -0.275 N 
ATOM    812  H3    U A  36      13.692 -58.155 -11.683  1.00  0.00     0.173 HD
ATOM    813  O2    U A  36      13.813 -59.415 -13.801  1.00  0.00    -0.246 OA
ATOM    814  O2'   U A  35       9.655 -55.932 -18.377  1.00  0.00    -0.388 OA
ATOM    815  C1'   U A  35      11.193 -54.752 -16.977  1.00  0.00     0.264 C 
ATOM    816 'HO2   U A  35       8.710 -55.782 -18.401  1.00  0.00     0.210 HD
ATOM    817  N1    U A  35      12.128 -54.954 -15.860  1.00  0.00    -0.280 N 
ATOM    818  C6    U A  35      11.851 -54.469 -14.601  1.00  0.00     0.104 A 
ATOM    819  C2    U A  35      13.297 -55.647 -16.114  1.00  0.00     0.331 A 
ATOM    820  C5    U A  35      12.684 -54.636 -13.572  1.00  0.00     0.092 A 
ATOM    821  C4    U A  35      13.913 -55.341 -13.753  1.00  0.00     0.250 A 
ATOM    822  N3    U A  35      14.126 -55.800 -15.032  1.00  0.00    -0.275 N 
ATOM    823  O4    U A  35      14.758 -55.552 -12.887  1.00  0.00    -0.268 OA
ATOM    824  H3    U A  35      14.983 -56.311 -15.189  1.00  0.00     0.173 HD
ATOM    825  O2    U A  35      13.579 -56.091 -17.212  1.00  0.00    -0.246 OA
ATOM    826  C1'   G A  33      10.683 -46.621  -5.951  1.00  0.00     0.262 C 
ATOM    827  O2'   G A  33       8.356 -46.159  -6.256  1.00  0.00    -0.388 OA
ATOM    828  N9    G A  33      11.958 -46.840  -6.629  1.00  0.00    -0.293 N 
ATOM    829  C8    G A  33      13.067 -47.473  -6.124  1.00  0.00     0.214 A 
ATOM    830  C4    G A  33      12.279 -46.459  -7.909  1.00  0.00     0.187 A 
ATOM    831  N7    G A  33      14.057 -47.533  -6.972  1.00  0.00    -0.234 NA
ATOM    832  C5    G A  33      13.572 -46.896  -8.108  1.00  0.00     0.173 A 
ATOM    833  C6    G A  33      14.189 -46.653  -9.362  1.00  0.00     0.292 A 
ATOM    834  N1    G A  33      13.337 -45.978 -10.228  1.00  0.00    -0.153 N 
ATOM    835  O6    G A  33      15.328 -46.958  -9.735  1.00  0.00    -0.265 OA
ATOM    836  C2    G A  33      12.060 -45.583  -9.928  1.00  0.00     0.703 A 
ATOM    837  H1    G A  33      13.686 -45.763 -11.149  1.00  0.00     0.187 HD
ATOM    838  N2    G A  33      11.400 -44.942 -10.896  1.00  0.00    -0.233 N 
ATOM    839  N3    G A  33      11.472 -45.800  -8.766  1.00  0.00    -0.044 NA
ATOM    840  H21   G A  33      10.455 -44.629 -10.728  1.00  0.00     0.174 HD
ATOM    841  H22   G A  33      11.841 -44.777 -11.790  1.00  0.00     0.174 HD
ATOM    842 'HO2   G A  33       7.889 -46.812  -5.734  1.00  0.00     0.210 HD
ATOM    843  OP2   A A  32      15.842 -50.127   0.340  1.00  0.00    -0.624 OA
BRANCH 578 844
ATOM    844  O2'   A A  32      10.122 -46.091  -1.441  1.00  0.00    -0.388 OA
ATOM    845 'HO2   A A  32       9.591 -46.857  -1.222  1.00  0.00     0.210 HD
ENDBRANCH 578 844
BRANCH 580 846
ATOM    846  N9    A A  32      13.603 -45.851  -2.583  1.00  0.00    -0.294 N 
ATOM    847  C4    A A  32      13.605 -45.195  -3.790  1.00  0.00     0.167 A 
ATOM    848  N3    A A  32      12.607 -44.473  -4.327  1.00  0.00    -0.222 NA
ATOM    849  C5    A A  32      14.848 -45.432  -4.346  1.00  0.00     0.149 A 
ATOM    850  C2    A A  32      12.965 -43.987  -5.514  1.00  0.00     0.237 A 
ATOM    851  N1    A A  32      14.121 -44.132  -6.175  1.00  0.00    -0.222 NA
ATOM    852  C6    A A  32      15.103 -44.864  -5.605  1.00  0.00     0.155 A 
ATOM    853  N7    A A  32      15.620 -46.221  -3.504  1.00  0.00    -0.236 NA
ATOM    854  C8    A A  32      14.838 -46.443  -2.477  1.00  0.00     0.214 A 
BRANCH 852 855
ATOM    855  N6    A A  32      16.253 -45.007  -6.262  1.00  0.00    -0.382 N 
ATOM    856  H62   A A  32      16.381 -44.573  -7.166  1.00  0.00     0.157 HD
ATOM    857  H61   A A  32      17.000 -45.551  -5.854  1.00  0.00     0.157 HD
ENDBRANCH 852 855
ENDBRANCH 580 846
BRANCH 763 858
ATOM    858  O2'   C A  43      12.553 -42.549 -15.705  1.00  0.00    -0.388 OA
ATOM    859 'HO2   C A  43      12.602 -41.670 -15.326  1.00  0.00     0.210 HD
ENDBRANCH 763 858
BRANCH 760 860
ATOM    860  O3'   C A  43      14.716 -41.471 -17.008  1.00  0.00    -0.279 OA
BRANCH 860 861
ATOM    861  P     U A  44      15.219 -40.309 -16.017  1.00  0.00     0.408 P 
ATOM    862  OP2   U A  44      16.409 -40.805 -15.278  1.00  0.00    -0.624 OA
ATOM    863  OP1   U A  44      15.318 -39.058 -16.812  1.00  0.00    -0.624 OA
BRANCH 861 864
ATOM    864  O5'   U A  44      14.020 -40.142 -14.980  1.00  0.00    -0.287 OA
BRANCH 864 865
ATOM    865  C5'   U A  44      14.227 -39.527 -13.710  1.00  0.00     0.216 C 
BRANCH 865 866
ATOM    866  C4'   U A  44      13.026 -39.750 -12.822  1.00  0.00     0.180 C 
ATOM    867  O4'   U A  44      12.875 -41.177 -12.582  1.00  0.00    -0.353 OA
ATOM    868  C1'   U A  44      12.541 -41.402 -11.223  1.00  0.00     0.264 C 
ATOM    869  C2'   U A  44      12.222 -40.041 -10.607  1.00  0.00     0.199 C 
ATOM    870  C3'   U A  44      13.122 -39.132 -11.434  1.00  0.00     0.198 C 
BRANCH 868 871
ATOM    871  N1    U A  44      13.665 -42.095 -10.576  1.00  0.00    -0.280 N 
ATOM    872  C2    U A  44      13.474 -42.574  -9.292  1.00  0.00     0.331 A 
ATOM    873  O2    U A  44      12.424 -42.451  -8.689  1.00  0.00    -0.246 OA
ATOM    874  N3    U A  44      14.559 -43.204  -8.741  1.00  0.00    -0.275 N 
ATOM    875  H3    U A  44      14.443 -43.550  -7.800  1.00  0.00     0.173 HD
ATOM    876  C4    U A  44      15.788 -43.403  -9.328  1.00  0.00     0.250 A 
ATOM    877  C5    U A  44      15.906 -42.882 -10.653  1.00  0.00     0.092 A 
ATOM    878  O4    U A  44      16.669 -43.990  -8.701  1.00  0.00    -0.268 OA
ATOM    879  C6    U A  44      14.869 -42.261 -11.222  1.00  0.00     0.104 A 
ENDBRANCH 868 871
BRANCH 869 880
ATOM    880  O2'   U A  44      10.855 -39.749 -10.830  1.00  0.00    -0.388 OA
ATOM    881 'HO2   U A  44      10.806 -38.819 -11.054  1.00  0.00     0.210 HD
ENDBRANCH 869 880
BRANCH 870 882
ATOM    882  O3'   U A  44      12.680 -37.777 -11.430  1.00  0.00    -0.279 OA
BRANCH 882 883
ATOM    883  P     G A  45      13.352 -36.721 -10.420  1.00  0.00     0.408 P 
ATOM    884  OP1   G A  45      12.713 -35.403 -10.670  1.00  0.00    -0.624 OA
ATOM    885  OP2   G A  45      14.828 -36.853 -10.523  1.00  0.00    -0.624 OA
BRANCH 883 886
ATOM    886  O5'   G A  45      12.901 -37.228  -8.978  1.00  0.00    -0.287 OA
BRANCH 886 887
ATOM    887  C5'   G A  45      11.521 -37.378  -8.651  1.00  0.00     0.216 C 
BRANCH 887 888
ATOM    888  C4'   G A  45      11.364 -37.709  -7.185  1.00  0.00     0.180 C 
ATOM    889  O4'   G A  45      11.631 -39.120  -6.979  1.00  0.00    -0.353 OA
ATOM    890  C1'   G A  45      12.200 -39.311  -5.695  1.00  0.00     0.262 C 
ATOM    891  C2'   G A  45      12.323 -37.938  -5.030  1.00  0.00     0.199 C 
ATOM    892  C3'   G A  45      12.339 -37.017  -6.245  1.00  0.00     0.198 C 
BRANCH 890 893
ATOM    893  N9    G A  45      13.478 -39.999  -5.853  1.00  0.00    -0.293 N 
ATOM    894  C8    G A  45      14.292 -39.994  -6.960  1.00  0.00     0.214 A 
ATOM    895  N7    G A  45      15.376 -40.705  -6.806  1.00  0.00    -0.234 NA
ATOM    896  C5    G A  45      15.273 -41.210  -5.516  1.00  0.00     0.173 A 
ATOM    897  C4    G A  45      14.107 -40.784  -4.915  1.00  0.00     0.187 A 
ATOM    898  C6    G A  45      16.151 -42.053  -4.782  1.00  0.00     0.292 A 
ATOM    899  N3    G A  45      13.650 -41.058  -3.675  1.00  0.00    -0.044 NA
ATOM    900  C2    G A  45      14.475 -41.844  -3.007  1.00  0.00     0.703 A 
ATOM    901  N1    G A  45      15.657 -42.323  -3.511  1.00  0.00    -0.153 N 
ATOM    902  H1    G A  45      16.213 -42.918  -2.917  1.00  0.00     0.187 HD
ATOM    903  O6    G A  45      17.234 -42.535  -5.134  1.00  0.00    -0.265 OA
BRANCH 900 904
ATOM    904  N2    G A  45      14.174 -42.217  -1.761  1.00  0.00    -0.233 N 
ATOM    905  H21   G A  45      13.315 -41.891  -1.342  1.00  0.00     0.174 HD
ATOM    906  H22   G A  45      14.797 -42.819  -1.241  1.00  0.00     0.174 HD
ENDBRANCH 900 904
ENDBRANCH 890 893
BRANCH 891 907
ATOM    907  O2'   G A  45      11.173 -37.718  -4.234  1.00  0.00    -0.388 OA
ATOM    908 'HO2   G A  45      11.353 -36.939  -3.705  1.00  0.00     0.210 HD
ENDBRANCH 891 907
BRANCH 892 909
ATOM    909  O3'   G A  45      11.918 -35.690  -5.939  1.00  0.00    -0.279 OA
BRANCH 909 910
ATOM    910  P     G A  46      12.980 -34.482  -5.976  1.00  0.00     0.408 P 
ATOM    911  OP1   G A  46      12.212 -33.233  -6.219  1.00  0.00    -0.624 OA
ATOM    912  OP2   G A  46      14.099 -34.841  -6.886  1.00  0.00    -0.624 OA
BRANCH 910 913
ATOM    913  O5'   G A  46      13.550 -34.424  -4.489  1.00  0.00    -0.287 OA
BRANCH 913 914
ATOM    914  C5'   G A  46      12.731 -33.987  -3.404  1.00  0.00     0.216 C 
BRANCH 914 915
ATOM    915  C4'   G A  46      12.893 -34.913  -2.221  1.00  0.00     0.180 C 
ATOM    916  O4'   G A  46      13.030 -36.279  -2.695  1.00  0.00    -0.353 OA
ATOM    917  C1'   G A  46      13.919 -36.991  -1.851  1.00  0.00     0.262 C 
ATOM    918  C2'   G A  46      14.339 -36.049  -0.721  1.00  0.00     0.199 C 
ATOM    919  C3'   G A  46      14.138 -34.687  -1.377  1.00  0.00     0.198 C 
BRANCH 917 920
ATOM    920  N9    G A  46      15.036 -37.472  -2.657  1.00  0.00    -0.293 N 
ATOM    921  C4    G A  46      15.882 -38.510  -2.344  1.00  0.00     0.187 A 
ATOM    922  C5    G A  46      16.768 -38.591  -3.398  1.00  0.00     0.173 A 
ATOM    923  N3    G A  46      15.827 -39.268  -1.230  1.00  0.00    -0.044 NA
ATOM    924  C6    G A  46      17.781 -39.585  -3.363  1.00  0.00     0.292 A 
ATOM    925  N7    G A  46      16.487 -37.623  -4.354  1.00  0.00    -0.234 NA
ATOM    926  O6    G A  46      18.661 -39.821  -4.198  1.00  0.00    -0.265 OA
ATOM    927  N1    G A  46      17.705 -40.352  -2.207  1.00  0.00    -0.153 N 
ATOM    928  H1    G A  46      18.389 -41.084  -2.095  1.00  0.00     0.187 HD
ATOM    929  C2    G A  46      16.776 -40.187  -1.212  1.00  0.00     0.703 A 
ATOM    930  C8    G A  46      15.455 -36.986  -3.872  1.00  0.00     0.214 A 
BRANCH 929 931
ATOM    931  N2    G A  46      16.866 -41.026  -0.177  1.00  0.00    -0.233 N 
ATOM    932  H22   G A  46      17.582 -41.735  -0.153  1.00  0.00     0.174 HD
ATOM    933  H21   G A  46      16.205 -40.945   0.582  1.00  0.00     0.174 HD
ENDBRANCH 929 931
ENDBRANCH 917 920
BRANCH 918 934
ATOM    934  O2'   G A  46      13.455 -36.227   0.369  1.00  0.00    -0.388 OA
ATOM    935 'HO2   G A  46      13.160 -35.353   0.629  1.00  0.00     0.210 HD
ENDBRANCH 918 934
BRANCH 919 936
ATOM    936  O3'   G A  46      13.942 -33.646  -0.423  1.00  0.00    -0.279 OA
ATOM    937  P     C A  47      15.194 -32.759   0.061  1.00  0.00     0.408 P 
ATOM    938  OP1   C A  47      14.692 -31.800   1.078  1.00  0.00    -0.624 OA
ATOM    939  OP2   C A  47      15.902 -32.251  -1.142  1.00  0.00    -0.624 OA
ATOM    940  O5'   C A  47      16.146 -33.807   0.792  1.00  0.00    -0.287 OA
ATOM    941  C5'   C A  47      15.701 -34.527   1.941  1.00  0.00     0.216 C 
ATOM    942  C4'   C A  47      16.847 -35.306   2.542  1.00  0.00     0.180 C 
ATOM    943  C3'   C A  47      18.210 -34.637   2.455  1.00  0.00     0.198 C 
ATOM    944  O4'   C A  47      17.016 -36.547   1.808  1.00  0.00    -0.353 OA
ATOM    945  O3'   C A  47      18.399 -33.700   3.512  1.00  0.00    -0.279 OA
ATOM    946  C2'   C A  47      19.163 -35.823   2.544  1.00  0.00     0.199 C 
ATOM    947  P     U A  48      19.104 -32.285   3.211  1.00  0.00     0.408 P 
ATOM    948  OP2   U A  48      18.801 -31.886   1.813  1.00  0.00    -0.624 OA
ATOM    949  O5'   U A  48      20.661 -32.607   3.309  1.00  0.00    -0.287 OA
ATOM    950  OP1   U A  48      18.751 -31.372   4.327  1.00  0.00    -0.624 OA
ATOM    951  C5'   U A  48      21.222 -33.158   4.499  1.00  0.00     0.216 C 
ATOM    952  C4'   U A  48      22.666 -33.538   4.270  1.00  0.00     0.180 C 
ATOM    953  O4'   U A  48      22.721 -34.797   3.549  1.00  0.00    -0.353 OA
ATOM    954  C3'   U A  48      23.469 -32.585   3.398  1.00  0.00     0.198 C 
ATOM    955  C1'   U A  48      23.857 -34.808   2.701  1.00  0.00     0.264 C 
ATOM    956  N1    U A  48      23.404 -35.037   1.321  1.00  0.00    -0.280 N 
ATOM    957  C2'   U A  48      24.594 -33.481   2.892  1.00  0.00     0.199 C 
ATOM    958  C6    U A  48      22.216 -34.513   0.863  1.00  0.00     0.104 A 
ATOM    959  C2    U A  48      24.214 -35.795   0.495  1.00  0.00     0.331 A 
ATOM    960  C5    U A  48      21.787 -34.703  -0.389  1.00  0.00     0.092 A 
ATOM    961  C4    U A  48      22.570 -35.473  -1.304  1.00  0.00     0.250 A 
ATOM    962  O4    U A  48      22.287 -35.711  -2.478  1.00  0.00    -0.268 OA
ATOM    963  N3    U A  48      23.742 -35.967  -0.780  1.00  0.00    -0.275 N 
ATOM    964  H3    U A  48      24.321 -36.516  -1.398  1.00  0.00     0.173 HD
ATOM    965  O2    U A  48      25.269 -36.278   0.863  1.00  0.00    -0.246 OA
ATOM    966  O2'   U A  48      25.591 -33.657   3.881  1.00  0.00    -0.388 OA
ATOM    967 'HO2   U A  48      25.479 -32.950   4.516  1.00  0.00     0.210 HD
ATOM    968  O3'   U A  48      23.951 -31.469   4.142  1.00  0.00    -0.279 OA
ATOM    969  P     U A  49      24.307 -30.096   3.383  1.00  0.00     0.408 P 
ATOM    970  OP2   U A  49      23.276 -29.852   2.343  1.00  0.00    -0.624 OA
ATOM    971  O5'   U A  49      25.689 -30.408   2.652  1.00  0.00    -0.287 OA
ATOM    972  OP1   U A  49      24.557 -29.068   4.425  1.00  0.00    -0.624 OA
ATOM    973  C5'   U A  49      26.848 -30.771   3.399  1.00  0.00     0.216 C 
ATOM    974  C4'   U A  49      27.943 -31.244   2.471  1.00  0.00     0.180 C 
ATOM    975  O4'   U A  49      27.475 -32.393   1.719  1.00  0.00    -0.353 OA
ATOM    976  C3'   U A  49      28.367 -30.260   1.392  1.00  0.00     0.198 C 
ATOM    977  C1'   U A  49      28.098 -32.410   0.446  1.00  0.00     0.264 C 
ATOM    978  N1    U A  49      27.052 -32.451  -0.585  1.00  0.00    -0.280 N 
ATOM    979  C2'   U A  49      28.999 -31.176   0.350  1.00  0.00     0.199 C 
ATOM    980  C2    U A  49      27.336 -33.117  -1.763  1.00  0.00     0.331 A 
ATOM    981  C6    U A  49      25.831 -31.844  -0.391  1.00  0.00     0.104 A 
ATOM    982  O2    U A  49      28.400 -33.673  -1.970  1.00  0.00    -0.246 OA
ATOM    983  N3    U A  49      26.328 -33.111  -2.691  1.00  0.00    -0.275 N 
ATOM    984  H3    U A  49      26.525 -33.580  -3.563  1.00  0.00     0.173 HD
ATOM    985  C4    U A  49      25.089 -32.526  -2.565  1.00  0.00     0.250 A 
ATOM    986  O4    U A  49      24.283 -32.614  -3.492  1.00  0.00    -0.268 OA
ATOM    987  C5    U A  49      24.869 -31.861  -1.319  1.00  0.00     0.092 A 
ATOM    988  O2'   U A  49      30.313 -31.544   0.726  1.00  0.00    -0.388 OA
ATOM    989 'HO2   U A  49      30.635 -30.856   1.308  1.00  0.00     0.210 HD
ATOM    990  O3'   U A  49      29.283 -29.290   1.893  1.00  0.00    -0.279 OA
ATOM    991  P     G A  50      29.314 -27.814   1.254  1.00  0.00     0.408 P 
ATOM    992  O5'   G A  50      29.643 -28.064  -0.285  1.00  0.00    -0.287 OA
ATOM    993  OP2   G A  50      27.951 -27.232   1.347  1.00  0.00    -0.624 OA
ATOM    994  OP1   G A  50      30.462 -27.094   1.861  1.00  0.00    -0.624 OA
ATOM    995  C5'   G A  50      30.900 -28.604  -0.689  1.00  0.00     0.216 C 
ATOM    996  C4'   G A  50      30.862 -28.979  -2.153  1.00  0.00     0.180 C 
ATOM    997  O4'   G A  50      29.797 -29.941  -2.371  1.00  0.00    -0.353 OA
ATOM    998  C3'   G A  50      30.539 -27.844  -3.114  1.00  0.00     0.198 C 
ATOM    999  C1'   G A  50      29.210 -29.721  -3.644  1.00  0.00     0.262 C 
ATOM   1000  N9    G A  50      27.795 -29.421  -3.454  1.00  0.00    -0.293 N 
ATOM   1001  C2'   G A  50      29.986 -28.590  -4.322  1.00  0.00     0.199 C 
ATOM   1002  C4    G A  50      26.821 -29.429  -4.424  1.00  0.00     0.187 A 
ATOM   1003  C8    G A  50      27.169 -29.071  -2.282  1.00  0.00     0.214 A 
ATOM   1004  N3    G A  50      27.004 -29.724  -5.728  1.00  0.00    -0.044 NA
ATOM   1005  C5    G A  50      25.656 -29.077  -3.776  1.00  0.00     0.173 A 
ATOM   1006  C2    G A  50      25.879 -29.645  -6.413  1.00  0.00     0.703 A 
ATOM   1007  N2    G A  50      25.881 -29.909  -7.721  1.00  0.00    -0.233 N 
ATOM   1008  N1    G A  50      24.669 -29.302  -5.868  1.00  0.00    -0.153 N 
ATOM   1009  H21   G A  50      26.750 -30.168  -8.169  1.00  0.00     0.174 HD
ATOM   1010  H22   G A  50      25.030 -29.852  -8.262  1.00  0.00     0.174 HD
ATOM   1011  H1    G A  50      23.868 -29.267  -6.480  1.00  0.00     0.187 HD
ATOM   1012  C6    G A  50      24.455 -28.995  -4.529  1.00  0.00     0.292 A 
ATOM   1013  O6    G A  50      23.320 -28.698  -4.141  1.00  0.00    -0.265 OA
ATOM   1014  N7    G A  50      25.891 -28.854  -2.425  1.00  0.00    -0.234 NA
ATOM   1015  O2'   G A  50      31.027 -29.157  -5.096  1.00  0.00    -0.388 OA
ATOM   1016 'HO2   G A  50      31.566 -28.433  -5.414  1.00  0.00     0.210 HD
ATOM   1017  O3'   G A  50      31.697 -27.076  -3.429  1.00  0.00    -0.279 OA
ATOM   1018  P     U A  51      31.603 -25.471  -3.478  1.00  0.00     0.408 P 
ATOM   1019  OP1   U A  51      32.922 -24.961  -3.931  1.00  0.00    -0.624 OA
ATOM   1020  O5'   U A  51      30.535 -25.181  -4.625  1.00  0.00    -0.287 OA
ATOM   1021  OP2   U A  51      31.035 -24.995  -2.191  1.00  0.00    -0.624 OA
ATOM   1022  C5'   U A  51      30.837 -25.440  -5.995  1.00  0.00     0.216 C 
ATOM   1023  C4'   U A  51      29.787 -24.819  -6.887  1.00  0.00     0.180 C 
ATOM   1024  O4'   U A  51      28.617 -25.682  -6.904  1.00  0.00    -0.353 OA
ATOM   1025  C3'   U A  51      29.262 -23.463  -6.433  1.00  0.00     0.198 C 
ATOM   1026  C1'   U A  51      27.440 -24.895  -6.845  1.00  0.00     0.264 C 
ATOM   1027  C2'   U A  51      27.859 -23.437  -7.025  1.00  0.00     0.199 C 
ATOM   1028  N1    U A  51      26.768 -25.164  -5.565  1.00  0.00    -0.280 N 
ATOM   1029  O2'   U A  51      27.895 -23.140  -8.409  1.00  0.00    -0.388 OA
ATOM   1030 'HO2   U A  51      28.747 -22.742  -8.585  1.00  0.00     0.210 HD
ATOM   1031  C2    U A  51      25.398 -24.980  -5.504  1.00  0.00     0.331 A 
ATOM   1032  C6    U A  51      27.476 -25.582  -4.461  1.00  0.00     0.104 A 
ATOM   1033  O2    U A  51      24.736 -24.616  -6.458  1.00  0.00    -0.246 OA
ATOM   1034  N3    U A  51      24.833 -25.239  -4.282  1.00  0.00    -0.275 N 
ATOM   1035  C4    U A  51      25.479 -25.653  -3.141  1.00  0.00     0.250 A 
ATOM   1036  H3    U A  51      23.834 -25.113  -4.215  1.00  0.00     0.173 HD
ATOM   1037  O4    U A  51      24.833 -25.820  -2.107  1.00  0.00    -0.268 OA
ATOM   1038  C5    U A  51      26.891 -25.825  -3.285  1.00  0.00     0.092 A 
ATOM   1039  O3'   U A  51      30.077 -22.398  -6.915  1.00  0.00    -0.279 OA
ATOM   1040  P     C A  52      30.369 -21.126  -5.975  1.00  0.00     0.408 P 
ATOM   1041  OP1   C A  52      31.351 -20.266  -6.683  1.00  0.00    -0.624 OA
ATOM   1042  OP2   C A  52      30.674 -21.613  -4.605  1.00  0.00    -0.624 OA
ATOM   1043  C1'   C A  47      18.391 -36.887   1.761  1.00  0.00     0.264 C 
ATOM   1044  O2'   C A  47      19.310 -36.264   3.880  1.00  0.00    -0.388 OA
ATOM   1045 'HO2   C A  47      19.101 -35.517   4.443  1.00  0.00     0.210 HD
BRANCH 1040 1046
ATOM   1046  O5'   C A  52      28.975 -20.355  -5.925  1.00  0.00    -0.287 OA
BRANCH 1046 1047
ATOM   1047  C5'   C A  52      28.361 -19.870  -7.118  1.00  0.00     0.216 C 
BRANCH 1047 1048
ATOM   1048  C4'   C A  52      26.969 -19.364  -6.819  1.00  0.00     0.180 C 
ATOM   1049  O4'   C A  52      26.113 -20.497  -6.507  1.00  0.00    -0.353 OA
ATOM   1050  C1'   C A  52      25.239 -20.160  -5.444  1.00  0.00     0.264 C 
ATOM   1051  C2'   C A  52      25.410 -18.666  -5.169  1.00  0.00     0.199 C 
ATOM   1052  C3'   C A  52      26.853 -18.450  -5.607  1.00  0.00     0.198 C 
BRANCH 1050 1053
ATOM   1053  N1    C A  52      25.559 -21.018  -4.291  1.00  0.00    -0.278 N 
ATOM   1054  C2    C A  52      24.545 -21.338  -3.385  1.00  0.00     0.352 A 
ATOM   1055  O2    C A  52      23.406 -20.889  -3.576  1.00  0.00    -0.244 OA
ATOM   1056  N3    C A  52      24.831 -22.127  -2.325  1.00  0.00    -0.177 NA
ATOM   1057  C4    C A  52      26.069 -22.590  -2.154  1.00  0.00     0.128 A 
ATOM   1058  N4    C A  52      26.302 -23.364  -1.095  1.00  0.00    -0.384 N 
ATOM   1059  C5    C A  52      27.124 -22.279  -3.060  1.00  0.00     0.067 A 
ATOM   1060  H42   C A  52      25.543 -23.588  -0.467  1.00  0.00     0.157 HD
ATOM   1061  H41   C A  52      27.225 -23.737  -0.925  1.00  0.00     0.157 HD
ATOM   1062  C6    C A  52      26.826 -21.497  -4.105  1.00  0.00     0.102 A 
ENDBRANCH 1050 1053
BRANCH 1051 1063
ATOM   1063  O2'   C A  52      24.506 -17.951  -5.991  1.00  0.00    -0.388 OA
ATOM   1064 'HO2   C A  52      24.524 -17.034  -5.714  1.00  0.00     0.210 HD
ENDBRANCH 1051 1063
BRANCH 1052 1065
ATOM   1065  O3'   C A  52      27.126 -17.093  -5.950  1.00  0.00    -0.279 OA
BRANCH 1065 1066
ATOM   1066  P     C A  53      28.055 -16.193  -4.992  1.00  0.00     0.408 P 
ATOM   1067  OP1   C A  53      28.648 -15.122  -5.833  1.00  0.00    -0.624 OA
ATOM   1068  OP2   C A  53      28.946 -17.087  -4.207  1.00  0.00    -0.624 OA
BRANCH 1066 1069
ATOM   1069  O5'   C A  53      27.023 -15.514  -3.985  1.00  0.00    -0.287 OA
BRANCH 1069 1070
ATOM   1070  C5'   C A  53      25.939 -14.721  -4.467  1.00  0.00     0.216 C 
BRANCH 1070 1071
ATOM   1071  C4'   C A  53      25.054 -14.292  -3.319  1.00  0.00     0.180 C 
ATOM   1072  O4'   C A  53      24.572 -15.484  -2.637  1.00  0.00    -0.353 OA
ATOM   1073  C1'   C A  53      24.984 -15.460  -1.286  1.00  0.00     0.264 C 
ATOM   1074  C2'   C A  53      26.154 -14.483  -1.206  1.00  0.00     0.199 C 
ATOM   1075  C3'   C A  53      25.742 -13.449  -2.247  1.00  0.00     0.198 C 
BRANCH 1073 1076
ATOM   1076  N1    C A  53      25.317 -16.834  -0.877  1.00  0.00    -0.278 N 
ATOM   1077  C2    C A  53      24.791 -17.330   0.319  1.00  0.00     0.352 A 
ATOM   1078  N3    C A  53      25.093 -18.591   0.701  1.00  0.00    -0.177 NA
ATOM   1079  O2    C A  53      24.059 -16.599   1.003  1.00  0.00    -0.244 OA
ATOM   1080  C4    C A  53      25.885 -19.347  -0.060  1.00  0.00     0.128 A 
ATOM   1081  N4    C A  53      26.154 -20.583   0.359  1.00  0.00    -0.384 N 
ATOM   1082  C5    C A  53      26.435 -18.868  -1.285  1.00  0.00     0.067 A 
ATOM   1083  H42   C A  53      25.755 -20.908   1.228  1.00  0.00     0.157 HD
ATOM   1084  H41   C A  53      26.749 -21.188  -0.186  1.00  0.00     0.157 HD
ATOM   1085  C6    C A  53      26.127 -17.617  -1.651  1.00  0.00     0.102 A 
ENDBRANCH 1073 1076
BRANCH 1074 1086
ATOM   1086  O2'   C A  53      26.187 -13.918   0.091  1.00  0.00    -0.388 OA
ATOM   1087 'HO2   C A  53      25.462 -13.293   0.136  1.00  0.00     0.210 HD
ENDBRANCH 1074 1086
BRANCH 1075 1088
ATOM   1088  O3'   C A  53      24.858 -12.468  -1.709  1.00  0.00    -0.279 OA
BRANCH 1088 1089
ATOM   1089  P     A A  54      24.817 -10.992  -2.345  1.00  0.00     0.408 P 
ATOM   1090  OP1   A A  54      23.539 -10.360  -1.933  1.00  0.00    -0.624 OA
ATOM   1091  OP2   A A  54      25.158 -11.084  -3.787  1.00  0.00    -0.624 OA
BRANCH 1089 1092
ATOM   1092  O5'   A A  54      25.999 -10.219  -1.605  1.00  0.00    -0.287 OA
BRANCH 1092 1093
ATOM   1093  C5'   A A  54      26.127 -10.257  -0.184  1.00  0.00     0.216 C 
BRANCH 1093 1094
ATOM   1094  C4'   A A  54      27.260  -9.361   0.259  1.00  0.00     0.180 C 
ATOM   1095  O4'   A A  54      28.512  -9.930  -0.214  1.00  0.00    -0.353 OA
ATOM   1096  C1'   A A  54      29.330  -8.909  -0.753  1.00  0.00     0.262 C 
ATOM   1097  C2'   A A  54      28.700  -7.571  -0.370  1.00  0.00     0.198 C 
ATOM   1098  C3'   A A  54      27.224  -7.945  -0.304  1.00  0.00     0.182 C 
BRANCH 1096 1099
ATOM   1099  N9    A A  54      29.438  -9.120  -2.196  1.00  0.00    -0.294 N 
ATOM   1100  C4    A A  54      30.533  -8.844  -2.979  1.00  0.00     0.167 A 
ATOM   1101  N3    A A  54      31.711  -8.332  -2.582  1.00  0.00    -0.222 NA
ATOM   1102  C5    A A  54      30.176  -9.201  -4.266  1.00  0.00     0.149 A 
ATOM   1103  C2    A A  54      32.538  -8.201  -3.617  1.00  0.00     0.237 A 
ATOM   1104  N1    A A  54      32.335  -8.500  -4.907  1.00  0.00    -0.222 NA
ATOM   1105  C6    A A  54      31.141  -9.013  -5.271  1.00  0.00     0.155 A 
ATOM   1106  N7    A A  54      28.878  -9.695  -4.296  1.00  0.00    -0.236 NA
ATOM   1107  C8    A A  54      28.487  -9.626  -3.047  1.00  0.00     0.214 A 
BRANCH 1105 1108
ATOM   1108  N6    A A  54      30.941  -9.309  -6.556  1.00  0.00    -0.382 N 
ATOM   1109  H62   A A  54      31.677  -9.150  -7.228  1.00  0.00     0.157 HD
ATOM   1110  H61   A A  54      30.055  -9.693  -6.850  1.00  0.00     0.157 HD
ENDBRANCH 1105 1108
ENDBRANCH 1096 1099
BRANCH 1097 1111
ATOM   1111  O2'   A A  54      29.191  -7.185   0.901  1.00  0.00    -0.388 OA
ATOM   1112 'HO2   A A  54      28.450  -6.825   1.391  1.00  0.00     0.210 HD
ENDBRANCH 1097 1111
BRANCH 1098 1113
ATOM   1113  O3'   A A  54      26.473  -7.052   0.527  1.00  0.00    -0.390 OA
ATOM   1114 'HO3   A A  54      25.570  -7.380   0.551  1.00  0.00     0.210 HD
ENDBRANCH 1098 1113
ENDBRANCH 1093 1094
ENDBRANCH 1092 1093
ENDBRANCH 1089 1092
ENDBRANCH 1088 1089
ENDBRANCH 1075 1088
ENDBRANCH 1070 1071
ENDBRANCH 1069 1070
ENDBRANCH 1066 1069
ENDBRANCH 1065 1066
ENDBRANCH 1052 1065
ENDBRANCH 1047 1048
ENDBRANCH 1046 1047
ENDBRANCH 1040 1046
BRANCH 1043 1115
ATOM   1115  N1    C A  47      18.797 -36.991   0.350  1.00  0.00    -0.278 N 
ATOM   1116  C6    C A  47      18.136 -36.299  -0.627  1.00  0.00     0.102 A 
ATOM   1117  C5    C A  47      18.501 -36.398  -1.912  1.00  0.00     0.067 A 
ATOM   1118  C4    C A  47      19.605 -37.246  -2.216  1.00  0.00     0.128 A 
ATOM   1119  N3    C A  47      20.258 -37.921  -1.269  1.00  0.00    -0.177 NA
ATOM   1120  C2    C A  47      19.874 -37.814   0.021  1.00  0.00     0.352 A 
ATOM   1121  O2    C A  47      20.456 -38.430   0.925  1.00  0.00    -0.244 OA
BRANCH 1118 1122
ATOM   1122  N4    C A  47      20.018 -37.387  -3.474  1.00  0.00    -0.384 N 
ATOM   1123  H41   C A  47      19.551 -36.893  -4.221  1.00  0.00     0.157 HD
ATOM   1124  H42   C A  47      20.800 -37.994  -3.679  1.00  0.00     0.157 HD
ENDBRANCH 1118 1122
ENDBRANCH 1043 1115
ENDBRANCH 919 936
ENDBRANCH 914 915
ENDBRANCH 913 914
ENDBRANCH 910 913
ENDBRANCH 909 910
ENDBRANCH 892 909
ENDBRANCH 887 888
ENDBRANCH 886 887
ENDBRANCH 883 886
ENDBRANCH 882 883
ENDBRANCH 870 882
ENDBRANCH 865 866
ENDBRANCH 864 865
ENDBRANCH 861 864
ENDBRANCH 860 861
ENDBRANCH 760 860
ENDBRANCH 570 571
ENDBRANCH 566 570
BRANCH 567 1125
ATOM   1125  O2'   C A  31      15.158 -46.101   2.056  1.00  0.00    -0.388 OA
ATOM   1126 'HO2   C A  31      14.494 -46.790   2.109  1.00  0.00     0.210 HD
ENDBRANCH 567 1125
BRANCH 568 1127
ATOM   1127  N1    C A  31      17.833 -45.278  -0.204  1.00  0.00    -0.278 N 
ATOM   1128  C2    C A  31      17.169 -44.368  -1.033  1.00  0.00     0.352 A 
ATOM   1129  N3    C A  31      17.651 -44.128  -2.272  1.00  0.00    -0.177 NA
ATOM   1130  O2    C A  31      16.151 -43.801  -0.611  1.00  0.00    -0.244 OA
ATOM   1131  C4    C A  31      18.751 -44.754  -2.692  1.00  0.00     0.128 A 
ATOM   1132  C5    C A  31      19.451 -45.684  -1.869  1.00  0.00     0.067 A 
ATOM   1133  C6    C A  31      18.961 -45.915  -0.644  1.00  0.00     0.102 A 
BRANCH 1131 1134
ATOM   1134  N4    C A  31      19.187 -44.485  -3.922  1.00  0.00    -0.384 N 
ATOM   1135  H41   C A  31      20.016 -44.938  -4.277  1.00  0.00     0.157 HD
ATOM   1136  H42   C A  31      18.684 -43.825  -4.500  1.00  0.00     0.157 HD
ENDBRANCH 1131 1134
ENDBRANCH 568 1127
ENDBRANCH 564 565
ENDBRANCH 563 564
ENDBRANCH 560 563
ENDBRANCH 559 560
ENDBRANCH 555 559
BRANCH 556 1137
ATOM   1137  O2'   A A  30      21.180 -46.038   3.820  1.00  0.00    -0.388 OA
ATOM   1138 'HO2   A A  30      21.419 -46.908   4.142  1.00  0.00     0.210 HD
ENDBRANCH 556 1137
BRANCH 557 1139
ATOM   1139  N9    A A  30      22.250 -44.277   0.804  1.00  0.00    -0.294 N 
ATOM   1140  C8    A A  30      22.894 -44.716  -0.327  1.00  0.00     0.214 A 
ATOM   1141  N7    A A  30      22.563 -44.059  -1.411  1.00  0.00    -0.236 NA
ATOM   1142  C5    A A  30      21.641 -43.122  -0.965  1.00  0.00     0.149 A 
ATOM   1143  C6    A A  30      20.911 -42.121  -1.629  1.00  0.00     0.155 A 
ATOM   1144  C4    A A  30      21.440 -43.245   0.398  1.00  0.00     0.167 A 
ATOM   1145  N1    A A  30      20.075 -41.359  -0.892  1.00  0.00    -0.222 NA
ATOM   1146  C2    A A  30      19.986 -41.594   0.424  1.00  0.00     0.237 A 
ATOM   1147  N3    A A  30      20.618 -42.504   1.161  1.00  0.00    -0.222 NA
BRANCH 1143 1148
ATOM   1148  N6    A A  30      21.001 -41.884  -2.938  1.00  0.00    -0.382 N 
ATOM   1149  H61   A A  30      21.621 -42.441  -3.508  1.00  0.00     0.157 HD
ATOM   1150  H62   A A  30      20.460 -41.141  -3.358  1.00  0.00     0.157 HD
ENDBRANCH 1143 1148
ENDBRANCH 557 1139
ENDBRANCH 553 554
ENDBRANCH 552 553
ENDBRANCH 549 552
ENDBRANCH 548 549
ENDBRANCH 544 548
BRANCH 545 1151
ATOM   1151  O2'   G A  29      26.689 -43.795   1.526  1.00  0.00    -0.388 OA
ATOM   1152 'HO2   G A  29      26.701 -44.724   1.760  1.00  0.00     0.210 HD
ENDBRANCH 545 1151
BRANCH 546 1153
ATOM   1153  N9    G A  29      25.779 -41.789  -1.341  1.00  0.00    -0.293 N 
ATOM   1154  C4    G A  29      24.724 -40.993  -0.970  1.00  0.00     0.187 A 
ATOM   1155  C5    G A  29      24.124 -40.605  -2.150  1.00  0.00     0.173 A 
ATOM   1156  N3    G A  29      24.377 -40.677   0.295  1.00  0.00    -0.044 NA
ATOM   1157  C6    G A  29      22.986 -39.759  -2.091  1.00  0.00     0.292 A 
ATOM   1158  N7    G A  29      24.787 -41.150  -3.242  1.00  0.00    -0.234 NA
ATOM   1159  O6    G A  29      22.312 -39.303  -3.022  1.00  0.00    -0.265 OA
ATOM   1160  N1    G A  29      22.648 -39.449  -0.779  1.00  0.00    -0.153 N 
ATOM   1161  H1    G A  29      21.849 -38.853  -0.639  1.00  0.00     0.187 HD
ATOM   1162  C2    G A  29      23.317 -39.892   0.333  1.00  0.00     0.703 A 
ATOM   1163  C8    G A  29      25.757 -41.846  -2.713  1.00  0.00     0.214 A 
BRANCH 1162 1164
ATOM   1164  N2    G A  29      22.840 -39.483   1.511  1.00  0.00    -0.233 N 
ATOM   1165  H21   G A  29      23.295 -39.780   2.361  1.00  0.00     0.174 HD
ATOM   1166  H22   G A  29      22.025 -38.886   1.550  1.00  0.00     0.174 HD
ENDBRANCH 1162 1164
ENDBRANCH 546 1153
ENDBRANCH 542 543
ENDBRANCH 541 542
ENDBRANCH 538 541
ENDBRANCH 537 538
ENDBRANCH 533 537
BRANCH 534 1167
ATOM   1167  O2'   A A  28      30.357 -41.865  -3.075  1.00  0.00    -0.388 OA
ATOM   1168 'HO2   A A  28      30.646 -42.736  -3.352  1.00  0.00     0.210 HD
ENDBRANCH 534 1167
BRANCH 535 1169
ATOM   1169  N9    A A  28      28.015 -39.492  -4.587  1.00  0.00    -0.294 N 
ATOM   1170  C8    A A  28      27.291 -39.462  -5.754  1.00  0.00     0.214 A 
ATOM   1171  N7    A A  28      26.160 -38.805  -5.657  1.00  0.00    -0.236 NA
ATOM   1172  C5    A A  28      26.136 -38.375  -4.338  1.00  0.00     0.149 A 
ATOM   1173  C6    A A  28      25.200 -37.626  -3.603  1.00  0.00     0.155 A 
ATOM   1174  C4    A A  28      27.273 -38.790  -3.667  1.00  0.00     0.167 A 
ATOM   1175  N1    A A  28      25.478 -37.369  -2.307  1.00  0.00    -0.222 NA
ATOM   1176  C2    A A  28      26.623 -37.839  -1.792  1.00  0.00     0.237 A 
ATOM   1177  N3    A A  28      27.580 -38.553  -2.380  1.00  0.00    -0.222 NA
BRANCH 1173 1178
ATOM   1178  N6    A A  28      24.061 -37.158  -4.114  1.00  0.00    -0.382 N 
ATOM   1179  H62   A A  28      23.423 -36.629  -3.536  1.00  0.00     0.157 HD
ATOM   1180  H61   A A  28      23.835 -37.339  -5.082  1.00  0.00     0.157 HD
ENDBRANCH 1173 1178
ENDBRANCH 535 1169
ENDBRANCH 531 532
ENDBRANCH 530 531
ENDBRANCH 527 530
ENDBRANCH 526 527
ENDBRANCH 522 526
BRANCH 523 1181
ATOM   1181  O2'   A A  27      30.814 -38.708  -8.347  1.00  0.00    -0.388 OA
ATOM   1182 'HO2   A A  27      30.916 -39.499  -8.876  1.00  0.00     0.210 HD
ENDBRANCH 523 1181
BRANCH 524 1183
ATOM   1183  N9    A A  27      28.280 -36.077  -8.407  1.00  0.00    -0.294 N 
ATOM   1184  C8    A A  27      27.145 -35.834  -9.140  1.00  0.00     0.214 A 
ATOM   1185  N7    A A  27      26.216 -35.188  -8.476  1.00  0.00    -0.236 NA
ATOM   1186  C5    A A  27      26.779 -34.991  -7.223  1.00  0.00     0.149 A 
ATOM   1187  C4    A A  27      28.051 -35.532  -7.167  1.00  0.00     0.167 A 
ATOM   1188  C6    A A  27      26.300 -34.366  -6.058  1.00  0.00     0.155 A 
ATOM   1189  N3    A A  27      28.884 -35.525  -6.113  1.00  0.00    -0.222 NA
ATOM   1190  C2    A A  27      28.323 -34.907  -5.075  1.00  0.00     0.237 A 
ATOM   1191  N1    A A  27      27.113 -34.340  -4.979  1.00  0.00    -0.222 NA
ATOM   1192  N6    A A  27      25.096 -33.801  -5.961  1.00  0.00    -0.382 N 
ATOM   1193  H61   A A  27      24.474 -33.811  -6.756  1.00  0.00     0.157 HD
ATOM   1194  H62   A A  27      24.807 -33.367  -5.095  1.00  0.00     0.157 HD
ENDBRANCH 524 1183
ENDBRANCH 520 521
ENDBRANCH 519 520
ENDBRANCH 516 519
ENDBRANCH 515 516
ENDBRANCH 453 515
BRANCH 455 1195
ATOM   1195  O2'   G A  26      30.290 -34.811 -13.556  1.00  0.00    -0.388 OA
ATOM   1196 'HO2   G A  26      29.702 -35.235 -14.181  1.00  0.00     0.210 HD
ENDBRANCH 455 1195
ENDBRANCH 372 375
ENDBRANCH 371 372
ENDBRANCH 359 371
ENDBRANCH 354 355
ENDBRANCH 353 354
ENDBRANCH 350 353
ENDBRANCH 349 350
ENDBRANCH 336 349
ENDBRANCH 331 332
ENDBRANCH 330 331
ENDBRANCH 327 330
ENDBRANCH 326 327
ENDBRANCH 322 326
BRANCH 323 1197
ATOM   1197  O2'   C A  18       9.712  -8.364 -14.211  1.00  0.00    -0.388 OA
ATOM   1198 'HO2   C A  18       8.766  -8.216 -14.191  1.00  0.00     0.210 HD
ENDBRANCH 323 1197
BRANCH 324 1199
ATOM   1199  N1    C A  18      12.565  -6.811 -12.510  1.00  0.00    -0.278 N 
ATOM   1200  C2    C A  18      13.447  -7.832 -12.145  1.00  0.00     0.352 A 
ATOM   1201  O2    C A  18      13.412  -8.906 -12.762  1.00  0.00    -0.244 OA
ATOM   1202  N3    C A  18      14.316  -7.624 -11.131  1.00  0.00    -0.177 NA
ATOM   1203  C4    C A  18      14.326  -6.454 -10.492  1.00  0.00     0.128 A 
ATOM   1204  C5    C A  18      13.440  -5.394 -10.843  1.00  0.00     0.067 A 
ATOM   1205  C6    C A  18      12.583  -5.615 -11.848  1.00  0.00     0.102 A 
BRANCH 1203 1206
ATOM   1206  N4    C A  18      15.198  -6.295  -9.499  1.00  0.00    -0.384 N 
ATOM   1207  H41   C A  18      15.238  -5.425  -8.988  1.00  0.00     0.157 HD
ATOM   1208  H42   C A  18      15.824  -7.051  -9.254  1.00  0.00     0.157 HD
ENDBRANCH 1203 1206
ENDBRANCH 324 1199
ENDBRANCH 320 321
ENDBRANCH 319 320
ENDBRANCH 316 319
ENDBRANCH 315 316
ENDBRANCH 311 315
BRANCH 312 1209
ATOM   1209  O2'   C A  17      12.727  -2.833 -15.201  1.00  0.00    -0.388 OA
ATOM   1210 'HO2   C A  17      11.928  -2.313 -15.108  1.00  0.00     0.210 HD
ENDBRANCH 312 1209
BRANCH 313 1211
ATOM   1211  N1    C A  17      15.695  -3.169 -13.084  1.00  0.00    -0.278 N 
ATOM   1212  C2    C A  17      16.237  -4.433 -13.331  1.00  0.00     0.352 A 
ATOM   1213  O2    C A  17      15.983  -4.996 -14.404  1.00  0.00    -0.244 OA
ATOM   1214  N3    C A  17      17.024  -5.010 -12.395  1.00  0.00    -0.177 NA
ATOM   1215  C4    C A  17      17.276  -4.371 -11.252  1.00  0.00     0.128 A 
ATOM   1216  C5    C A  17      16.741  -3.080 -10.974  1.00  0.00     0.067 A 
ATOM   1217  C6    C A  17      15.961  -2.523 -11.908  1.00  0.00     0.102 A 
BRANCH 1215 1218
ATOM   1218  N4    C A  17      18.055  -4.981 -10.359  1.00  0.00    -0.384 N 
ATOM   1219  H42   C A  17      18.431  -5.896 -10.564  1.00  0.00     0.157 HD
ATOM   1220  H41   C A  17      18.270  -4.534  -9.480  1.00  0.00     0.157 HD
ENDBRANCH 1215 1218
ENDBRANCH 313 1211
ENDBRANCH 309 310
ENDBRANCH 308 309
ENDBRANCH 305 308
ENDBRANCH 304 305
ENDBRANCH 300 304
BRANCH 301 1221
ATOM   1221  O2'   C A  16      17.221   1.412 -13.422  1.00  0.00    -0.388 OA
ATOM   1222 'HO2   C A  16      16.567   2.013 -13.064  1.00  0.00     0.210 HD
ENDBRANCH 301 1221
BRANCH 302 1223
ATOM   1223  N1    C A  16      19.657  -0.809 -11.824  1.00  0.00    -0.278 N 
ATOM   1224  C2    C A  16      19.882  -1.878 -12.695  1.00  0.00     0.352 A 
ATOM   1225  O2    C A  16      19.649  -1.729 -13.903  1.00  0.00    -0.244 OA
ATOM   1226  N3    C A  16      20.346  -3.047 -12.201  1.00  0.00    -0.177 NA
ATOM   1227  C4    C A  16      20.586  -3.170 -10.895  1.00  0.00     0.128 A 
ATOM   1228  C5    C A  16      20.371  -2.096  -9.984  1.00  0.00     0.067 A 
ATOM   1229  C6    C A  16      19.907  -0.945 -10.487  1.00  0.00     0.102 A 
BRANCH 1227 1230
ATOM   1230  N4    C A  16      21.040  -4.343 -10.454  1.00  0.00    -0.384 N 
ATOM   1231  H42   C A  16      21.189  -5.099 -11.108  1.00  0.00     0.157 HD
ATOM   1232  H41   C A  16      21.234  -4.481  -9.473  1.00  0.00     0.157 HD
ENDBRANCH 1227 1230
ENDBRANCH 302 1223
ENDBRANCH 298 299
ENDBRANCH 297 298
ENDBRANCH 294 297
ENDBRANCH 293 294
ENDBRANCH 289 293
BRANCH 290 1233
ATOM   1233  O2'   C A  15      22.157   2.723  -9.199  1.00  0.00    -0.388 OA
ATOM   1234 'HO2   C A  15      21.705   3.217  -8.514  1.00  0.00     0.210 HD
ENDBRANCH 290 1233
BRANCH 291 1235
ATOM   1235  N1    C A  15      23.673  -0.603  -9.098  1.00  0.00    -0.278 N 
ATOM   1236  C2    C A  15      23.596  -1.015 -10.434  1.00  0.00     0.352 A 
ATOM   1237  N3    C A  15      23.707  -2.330 -10.727  1.00  0.00    -0.177 NA
ATOM   1238  O2    C A  15      23.425  -0.164 -11.319  1.00  0.00    -0.244 OA
ATOM   1239  C4    C A  15      23.884  -3.218  -9.748  1.00  0.00     0.128 A 
ATOM   1240  C5    C A  15      23.963  -2.829  -8.379  1.00  0.00     0.067 A 
ATOM   1241  C6    C A  15      23.851  -1.524  -8.103  1.00  0.00     0.102 A 
BRANCH 1239 1242
ATOM   1242  N4    C A  15      23.988  -4.503 -10.084  1.00  0.00    -0.384 N 
ATOM   1243  H42   C A  15      23.931  -4.773 -11.056  1.00  0.00     0.157 HD
ATOM   1244  H41   C A  15      24.122  -5.208  -9.374  1.00  0.00     0.157 HD
ENDBRANCH 1239 1242
ENDBRANCH 291 1235
ENDBRANCH 287 288
ENDBRANCH 286 287
ENDBRANCH 283 286
ENDBRANCH 282 283
ENDBRANCH 270 282
ENDBRANCH 265 266
ENDBRANCH 264 265
ENDBRANCH 261 264
ENDBRANCH 260 261
ENDBRANCH 245 260
ENDBRANCH 240 241
ENDBRANCH 239 240
ENDBRANCH 236 239
ENDBRANCH 235 236
ENDBRANCH 223 235
ENDBRANCH 218 219
ENDBRANCH 217 218
ENDBRANCH 214 217
ENDBRANCH 213 214
ENDBRANCH 209 213
BRANCH 210 1245
ATOM   1245  O2'   U A  11      27.567   1.844 -15.953  1.00  0.00    -0.388 OA
ATOM   1246 'HO2   U A  11      27.085   2.266 -16.665  1.00  0.00     0.210 HD
ENDBRANCH 210 1245
BRANCH 211 1247
ATOM   1247  N1    U A  11      26.765  -1.736 -15.941  1.00  0.00    -0.280 N 
ATOM   1248  C6    U A  11      26.818  -2.621 -16.994  1.00  0.00     0.104 A 
ATOM   1249  C5    U A  11      27.045  -3.926 -16.820  1.00  0.00     0.092 A 
ATOM   1250  C4    U A  11      27.246  -4.448 -15.506  1.00  0.00     0.250 A 
ATOM   1251  O4    U A  11      27.481  -5.622 -15.222  1.00  0.00    -0.268 OA
ATOM   1252  N3    U A  11      27.177  -3.511 -14.501  1.00  0.00    -0.275 N 
ATOM   1253  C2    U A  11      26.943  -2.168 -14.639  1.00  0.00     0.331 A 
ATOM   1254  H3    U A  11      27.331  -3.851 -13.562  1.00  0.00     0.173 HD
ATOM   1255  O2    U A  11      26.895  -1.419 -13.679  1.00  0.00    -0.246 OA
ENDBRANCH 211 1247
ENDBRANCH 207 208
ENDBRANCH 206 207
ENDBRANCH 203 206
ENDBRANCH 202 203
ENDBRANCH 185 202
ENDBRANCH 180 181
ENDBRANCH 179 180
ENDBRANCH 176 179
ENDBRANCH 175 176
ENDBRANCH 158 175
ENDBRANCH 153 154
ENDBRANCH 152 153
ENDBRANCH 149 152
ENDBRANCH 148 149
ENDBRANCH 144 148
BRANCH 145 1256
ATOM   1256  O2'   G A   8      18.739 -12.628 -17.239  1.00  0.00    -0.388 OA
ATOM   1257 'HO2   G A   8      19.302 -13.195 -17.766  1.00  0.00     0.210 HD
ENDBRANCH 145 1256
BRANCH 146 1258
ATOM   1258  N9    G A   8      18.925 -11.320 -13.855  1.00  0.00    -0.293 N 
ATOM   1259  C4    G A   8      18.465 -10.026 -13.822  1.00  0.00     0.187 A 
ATOM   1260  C5    G A   8      19.010  -9.472 -12.683  1.00  0.00     0.173 A 
ATOM   1261  N3    G A   8      17.649  -9.451 -14.730  1.00  0.00    -0.044 NA
ATOM   1262  N7    G A   8      19.802 -10.398 -12.015  1.00  0.00    -0.234 NA
ATOM   1263  C6    G A   8      18.708  -8.121 -12.368  1.00  0.00     0.292 A 
ATOM   1264  C8    G A   8      19.723 -11.474 -12.748  1.00  0.00     0.214 A 
ATOM   1265  O6    G A   8      19.092  -7.448 -11.405  1.00  0.00    -0.265 OA
ATOM   1266  N1    G A   8      17.865  -7.552 -13.316  1.00  0.00    -0.153 N 
ATOM   1267  H1    G A   8      17.593  -6.591 -13.175  1.00  0.00     0.187 HD
ATOM   1268  C2    G A   8      17.377  -8.196 -14.424  1.00  0.00     0.703 A 
BRANCH 1268 1269
ATOM   1269  N2    G A   8      16.582  -7.478 -15.220  1.00  0.00    -0.233 N 
ATOM   1270  H22   G A   8      16.367  -6.516 -14.997  1.00  0.00     0.174 HD
ATOM   1271  H21   G A   8      16.197  -7.906 -16.049  1.00  0.00     0.174 HD
ENDBRANCH 1268 1269
ENDBRANCH 146 1258
ENDBRANCH 142 143
ENDBRANCH 141 142
ENDBRANCH 138 141
ENDBRANCH 137 138
ENDBRANCH 133 137
BRANCH 134 1272
ATOM   1272  O2'   G A   7      18.434 -15.666 -11.637  1.00  0.00    -0.388 OA
ATOM   1273 'HO2   G A   7      19.165 -16.205 -11.940  1.00  0.00     0.210 HD
ENDBRANCH 134 1272
BRANCH 135 1274
ATOM   1274  N9    G A   7      18.021 -12.987  -9.239  1.00  0.00    -0.293 N 
ATOM   1275  C4    G A   7      17.228 -12.019  -9.807  1.00  0.00     0.187 A 
ATOM   1276  N3    G A   7      16.384 -12.194 -10.846  1.00  0.00    -0.044 NA
ATOM   1277  C5    G A   7      17.487 -10.868  -9.094  1.00  0.00     0.173 A 
ATOM   1278  C2    G A   7      15.758 -11.078 -11.166  1.00  0.00     0.703 A 
ATOM   1279  N1    G A   7      15.940  -9.882 -10.521  1.00  0.00    -0.153 N 
ATOM   1280  H1    G A   7      15.407  -9.089 -10.847  1.00  0.00     0.187 HD
ATOM   1281  C6    G A   7      16.804  -9.675  -9.451  1.00  0.00     0.292 A 
ATOM   1282  O6    G A   7      16.893  -8.551  -8.942  1.00  0.00    -0.265 OA
ATOM   1283  N7    G A   7      18.424 -11.106  -8.097  1.00  0.00    -0.234 NA
ATOM   1284  C8    G A   7      18.712 -12.372  -8.223  1.00  0.00     0.214 A 
BRANCH 1278 1285
ATOM   1285  N2    G A   7      14.885 -11.075 -12.175  1.00  0.00    -0.233 N 
ATOM   1286  H22   G A   7      14.397 -10.226 -12.433  1.00  0.00     0.174 HD
ATOM   1287  H21   G A   7      14.715 -11.930 -12.684  1.00  0.00     0.174 HD
ENDBRANCH 1278 1285
ENDBRANCH 135 1274
ENDBRANCH 131 132
ENDBRANCH 130 131
ENDBRANCH 127 130
ENDBRANCH 126 127
ENDBRANCH 122 126
BRANCH 123 1288
ATOM   1288  O2'   G A   6      18.384 -16.238  -5.640  1.00  0.00    -0.388 OA
ATOM   1289 'HO2   G A   6      19.278 -16.579  -5.620  1.00  0.00     0.210 HD
ENDBRANCH 123 1288
BRANCH 124 1290
ATOM   1290  N9    G A   6      16.843 -13.106  -4.615  1.00  0.00    -0.293 N 
ATOM   1291  C4    G A   6      15.944 -12.670  -5.557  1.00  0.00     0.187 A 
ATOM   1292  N3    G A   6      15.331 -13.438  -6.481  1.00  0.00    -0.044 NA
ATOM   1293  C5    G A   6      15.819 -11.313  -5.345  1.00  0.00     0.173 A 
ATOM   1294  C2    G A   6      14.520 -12.733  -7.248  1.00  0.00     0.703 A 
ATOM   1295  N1    G A   6      14.321 -11.383  -7.120  1.00  0.00    -0.153 N 
ATOM   1296  H1    G A   6      13.675 -10.943  -7.758  1.00  0.00     0.187 HD
ATOM   1297  C6    G A   6      14.940 -10.570  -6.177  1.00  0.00     0.292 A 
ATOM   1298  O6    G A   6      14.689  -9.360  -6.150  1.00  0.00    -0.265 OA
ATOM   1299  N7    G A   6      16.623 -10.903  -4.289  1.00  0.00    -0.234 NA
ATOM   1300  C8    G A   6      17.210 -11.998  -3.890  1.00  0.00     0.214 A 
BRANCH 1294 1301
ATOM   1301  N2    G A   6      13.836 -13.342  -8.219  1.00  0.00    -0.233 N 
ATOM   1302  H21   G A   6      13.950 -14.335  -8.355  1.00  0.00     0.174 HD
ATOM   1303  H22   G A   6      13.209 -12.816  -8.813  1.00  0.00     0.174 HD
ENDBRANCH 1294 1301
ENDBRANCH 124 1290
ENDBRANCH 120 121
ENDBRANCH 119 120
ENDBRANCH 116 119
ENDBRANCH 115 116
ENDBRANCH 100 115
ENDBRANCH  95  96
ENDBRANCH  94  95
ENDBRANCH  91  94
ENDBRANCH  90  91
ENDBRANCH  86  90
BRANCH  87 1304
ATOM   1304  O2'   C A   4      15.955 -10.086   4.584  1.00  0.00    -0.388 OA
ATOM   1305 'HO2   C A   4      16.909 -10.163   4.574  1.00  0.00     0.210 HD
ENDBRANCH  87 1304
BRANCH  88 1306
ATOM   1306  N1    C A   4      13.449  -8.218   2.756  1.00  0.00    -0.278 N 
ATOM   1307  C2    C A   4      12.860  -9.203   1.955  1.00  0.00     0.352 A 
ATOM   1308  N3    C A   4      12.211  -8.836   0.828  1.00  0.00    -0.177 NA
ATOM   1309  O2    C A   4      12.948 -10.390   2.301  1.00  0.00    -0.244 OA
ATOM   1310  C4    C A   4      12.138  -7.548   0.492  1.00  0.00     0.128 A 
ATOM   1311  C5    C A   4      12.728  -6.524   1.288  1.00  0.00     0.067 A 
ATOM   1312  C6    C A   4      13.368  -6.901   2.401  1.00  0.00     0.102 A 
BRANCH 1310 1313
ATOM   1313  N4    C A   4      11.487  -7.237  -0.626  1.00  0.00    -0.384 N 
ATOM   1314  H42   C A   4      11.068  -7.971  -1.184  1.00  0.00     0.157 HD
ATOM   1315  H41   C A   4      11.407  -6.272  -0.918  1.00  0.00     0.157 HD
ENDBRANCH 1310 1313
ENDBRANCH  88 1306
ENDBRANCH  84  85
ENDBRANCH  83  84
ENDBRANCH  80  83
ENDBRANCH  79  80
ENDBRANCH  62  79
ENDBRANCH  57  58
ENDBRANCH  56  57
ENDBRANCH  53  56
ENDBRANCH  52  53
ENDBRANCH  35  52
ENDBRANCH  30  31
ENDBRANCH  29  30
ENDBRANCH  26  29
ENDBRANCH  25  26
ENDBRANCH   8  25
ENDBRANCH   3   4
ENDBRANCH   2   3
TORSDOF 416
